@<TRIPOS>MOLECULE
CHEM029
24 24 1 0 0 
SMALL
USER_CHARGES


@<TRIPOS>ATOM
  1 H        0.4900    -1.4290     0.8330 H.spc     1 <1>   0.4000 
  2 N        1.1970    -0.8030     1.2160 N.2   1 <1>  -0.8500 
  3 C        1.9030    -0.3260     0.2630 C.2   1 <1>   0.7110 
  4 N        2.9330     0.5530     0.5520 N.2   1 <1>  -0.6610 
  5 C        3.4300     0.8220    -0.6370 C.2   1 <1>   0.5960 
  6 S        4.8140     1.9370    -0.8930 S.o   1 <1>   0.2110 
  7 O        5.2080     1.7070    -2.3270 O.2   1 <1>  -0.5000 
  8 C        5.9640     1.0060     0.1690 C.3   1 <1>   0.1940 
  9 H        5.9880    -0.0340    -0.1720 H.spc     1 <1>   0.0000 
 10 H        5.5810     1.0350     1.1940 H.spc     1 <1>   0.0000 
 11 C        7.3580     1.6230     0.1090 C.3   1 <1>   0.0000 
 12 H        7.3120     2.6760     0.4160 H.spc     1 <1>   0.0000 
 13 H        7.7300     1.6110    -0.9230 H.spc     1 <1>   0.0000 
 14 C        8.3340     0.8690     1.0120 C.3   1 <1>   0.0000 
 15 H        7.9670     0.8760     2.0450 H.spc     1 <1>   0.0000 
 16 H        8.3980    -0.1790     0.6970 H.spc     1 <1>   0.0000 
 17 C        9.7220     1.4880     0.9730 C.3   1 <1>   0.0000 
 18 H       10.1340     1.4650    -0.0410 H.spc     1 <1>   0.0000 
 19 H       10.4020     0.9350     1.6280 H.spc     1 <1>   0.0000 
 20 H        9.6970     2.5300     1.3100 H.spc     1 <1>   0.0000 
 21 N        2.7810     0.1700    -1.6600 N.pl3 1 <1>  -0.4500 
 22 H        3.0290     0.2520    -2.6400 H.spc     1 <1>   0.4000 
 23 N        1.8090    -0.5570    -1.0850 N.pl3 1 <1>  -0.4500 
 24 H        1.1400    -1.1560    -1.5470 H.spc     1 <1>   0.4000 
@<TRIPOS>BOND
  1   1   2  1   
  2   2   3  2   
  3   3   4  1   
  4   3  23  1   
  5   4   5  2   
  6   5   6  1   
  7   5  21  1   
  8   6   7  2   
  9   6   8  1   
 10   8   9  1   
 11   8  10  1   
 12   8  11  1   
 13  11  12  1   
 14  11  13  1   
 15  11  14  1   
 16  14  15  1   
 17  14  16  1   
 18  14  17  1   
 19  17  18  1   
 20  17  19  1   
 21  17  20  1   
 22  21  22  1   
 23  21  23  1   
 24  23  24  1   
@<TRIPOS>SUBSTRUCTURE
  1 ****   5 GROUP 4 **** **** 0
