@<TRIPOS>MOLECULE
CHEM125
20 21 1 0 0 
SMALL
USER_CHARGES


@<TRIPOS>ATOM
  1 H        7.5110     1.3170     0.0260 H.spc     1 <1>   0.5000 
  2 O        6.5580     1.0940     0.0310 O.3   1 <1>  -0.6500 
  3 C        5.9530     2.3050     0.0100 C.2   1 <1>   0.8050 
  4 O        6.6470     3.3150    -0.0090 O.2   1 <1>  -0.5700 
  5 C        4.5080     2.2340     0.0140 C.2   1 <1>  -0.0450 
  6 S        3.6810     0.7380     0.0340 S.3   1 <1>  -0.0800 
  7 C        2.1330     1.4830     0.0270 C.ar  1 <1>   0.0400 
  8 C        0.8830     0.8320     0.0370 C.ar  1 <1>  -0.1500 
  9 H        0.8250    -0.2530     0.0500 H.spc     1 <1>   0.1500 
 10 C       -0.2820     1.6000     0.0300 C.ar  1 <1>  -0.1500 
 11 H       -1.2510     1.1070     0.0370 H.spc     1 <1>   0.1500 
 12 C       -0.2110     2.9850     0.0130 C.ar  1 <1>  -0.1500 
 13 H       -1.1230     3.5770     0.0080 H.spc     1 <1>   0.1500 
 14 C        1.0320     3.6260     0.0020 C.ar  1 <1>  -0.1500 
 15 H        1.0700     4.7120    -0.0110 H.spc     1 <1>   0.1500 
 16 C        2.2370     2.8760     0.0100 C.ar  1 <1>   0.0000 
 17 C        3.6160     3.2890     0.0020 C.2   1 <1>   0.0830 
 18 N        3.9970     4.5870    -0.0160 N.pl3 1 <1>  -0.8830 
 19 H        4.9800     4.8610    -0.0220 H.spc     1 <1>   0.4000 
 20 H        3.3440     5.3630    -0.0230 H.spc     1 <1>   0.4000 
@<TRIPOS>BOND
  1   1   2  1   
  2   2   3  1   
  3   3   4  2   
  4   3   5  1   
  5   5   6  1   
  6   5  17  2   
  7   6   7  1   
  8   7   8  ar  
  9   7  16  ar  
 10   8   9  1   
 11   8  10  ar  
 12  10  11  1   
 13  10  12  ar  
 14  12  13  1   
 15  12  14  ar  
 16  14  15  1   
 17  14  16  ar  
 18  16  17  1   
 19  17  18  1   
 20  18  19  1   
 21  18  20  1   
@<TRIPOS>SUBSTRUCTURE
  1 ****  16 GROUP 4 **** **** 0
