@<TRIPOS>MOLECULE
CHEM148
32 33 1 0 0 
SMALL
USER_CHARGES


@<TRIPOS>ATOM
  1 H        0.3420    -1.4920     1.8900 H.spc     1 <1>   0.1500 
  2 C       -0.5050    -1.0320     1.3870 C.ar  1 <1>  -0.1500 
  3 C       -0.3650     0.1840     0.7210 C.ar  1 <1>   0.0860 
  4 C        0.9370     0.8810     0.6950 C.2   1 <1>   0.5440 
  5 O        0.9830     1.9980     1.2030 O.2   1 <1>  -0.5700 
  6 N        2.0300     0.2420     0.1150 N.am  1 <1>  -0.6600 
  7 C        1.9690    -0.9880    -0.6620 C.3   1 <1>   0.3000 
  8 H        0.9510    -1.2270    -0.9780 H.spc     1 <1>   0.0000 
  9 H        2.3650    -1.8050    -0.0510 H.spc     1 <1>   0.0000 
 10 H        2.5850    -0.8750    -1.5600 H.spc     1 <1>   0.0000 
 11 C        3.3470     0.8380     0.2680 C.3   1 <1>   0.3000 
 12 H        4.0240     0.0910     0.6920 H.spc     1 <1>   0.0000 
 13 H        3.7110     1.1440    -0.7170 H.spc     1 <1>   0.0000 
 14 H        3.3310     1.7110     0.9260 H.spc     1 <1>   0.0000 
 15 C       -1.4700     0.7910     0.1230 C.ar  1 <1>  -0.1500 
 16 H       -1.3620     1.7560    -0.3670 H.spc     1 <1>   0.1500 
 17 C       -2.7130     0.1770     0.1460 C.ar  1 <1>   0.3100 
 18 N       -3.7570     0.7730    -0.4570 N.ar  1 <1>  -0.6200 
 19 C       -4.9530     0.1340    -0.4080 C.ar  1 <1>   0.1660 
 20 C       -6.1020     0.8180    -1.0840 C.3   1 <1>   0.1440 
 21 H       -5.7830     1.7680    -1.5260 H.spc     1 <1>   0.0000 
 22 H       -6.8960     1.0360    -0.3620 H.spc     1 <1>   0.0000 
 23 H       -6.5020     0.1920    -1.8870 H.spc     1 <1>   0.0000 
 24 C       -5.0970    -1.0940     0.2370 C.ar  1 <1>   0.1660 
 25 C       -6.4100    -1.8130     0.2990 C.3   1 <1>   0.1440 
 26 H       -7.1560    -1.2030     0.8170 H.spc     1 <1>   0.0000 
 27 H       -6.3100    -2.7560     0.8470 H.spc     1 <1>   0.0000 
 28 H       -6.7660    -2.0480    -0.7090 H.spc     1 <1>   0.0000 
 29 N       -4.0460    -1.7010     0.8440 N.ar  1 <1>  -0.6200 
 30 C       -2.8600    -1.0690     0.8010 C.ar  1 <1>   0.3100 
 31 C       -1.7560    -1.6500     1.4140 C.ar  1 <1>  -0.1500 
 32 H       -1.8780    -2.6010     1.9280 H.spc     1 <1>   0.1500 
@<TRIPOS>BOND
  1   1   2  1   
  2   2   3  ar  
  3   2  31  ar  
  4   3   4  1   
  5   3  15  ar  
  6   4   5  2   
  7   4   6  am  
  8   6   7  1   
  9   6  11  1   
 10   7   8  1   
 11   7   9  1   
 12   7  10  1   
 13  11  12  1   
 14  11  13  1   
 15  11  14  1   
 16  15  16  1   
 17  15  17  ar  
 18  17  18  ar  
 19  17  30  ar  
 20  18  19  ar  
 21  19  20  1   
 22  19  24  ar  
 23  20  21  1   
 24  20  22  1   
 25  20  23  1   
 26  24  25  1   
 27  24  29  ar  
 28  25  26  1   
 29  25  27  1   
 30  25  28  1   
 31  29  30  ar  
 32  30  31  ar  
 33  31  32  1   
@<TRIPOS>SUBSTRUCTURE
  1 ****  17 GROUP 4 **** **** 0
