@<TRIPOS>MOLECULE
CHEM110
20 21 1 0 0 
SMALL
USER_CHARGES


@<TRIPOS>ATOM
  1 H        5.5240     4.3910    -0.1950 H.spc     1 <1>   0.5000 
  2 O        4.5560     4.2340    -0.1790 O.3   1 <1>  -0.6500 
  3 C        4.4490     2.9050    -0.0720 C.2   1 <1>   0.7060 
  4 O        5.4350     2.1910    -0.0180 O.2   1 <1>  -0.5700 
  5 C        3.0710     2.3950    -0.0270 C.2   1 <1>  -0.1360 
  6 H        3.0410     1.3130     0.0510 H.spc     1 <1>   0.1500 
  7 C        1.9210     3.0910    -0.0700 C.2   1 <1>  -0.0380 
  8 N        0.6560     2.5400    -0.0220 N.pl3 1 <1>  -0.5190 
  9 C       -0.4200     3.3650    -0.0700 C.2   1 <1>   0.6410 
 10 N       -1.6180     2.8690    -0.0250 N.2   1 <1>  -0.6960 
 11 C       -1.3470     1.3960     0.0750 C.3   1 <1>   0.2460 
 12 H       -1.7920     1.0080     0.9970 H.spc     1 <1>   0.0000 
 13 H       -1.8110     0.8830    -0.7740 H.spc     1 <1>   0.0000 
 14 C        0.1870     1.1850     0.0730 C.3   1 <1>   0.3690 
 15 H        0.5180     0.7010     0.9980 H.spc     1 <1>   0.0000 
 16 H        0.4990     0.5830    -0.7860 H.spc     1 <1>   0.0000 
 17 S        0.0170     5.0310    -0.1880 S.3   1 <1>  -0.3710 
 18 C        1.8210     4.6130    -0.1760 C.3   1 <1>   0.3680 
 19 H        2.2560     4.9790    -1.1110 H.spc     1 <1>   0.0000 
 20 H        2.2740     5.1070     0.6870 H.spc     1 <1>   0.0000 
@<TRIPOS>BOND
  1   1   2  1   
  2   2   3  1   
  3   3   4  2   
  4   3   5  1   
  5   5   6  1   
  6   5   7  2   
  7   7   8  1   
  8   7  18  1   
  9   8   9  1   
 10   8  14  1   
 11   9  10  2   
 12   9  17  1   
 13  10  11  1   
 14  11  12  1   
 15  11  13  1   
 16  11  14  1   
 17  14  15  1   
 18  14  16  1   
 19  17  18  1   
 20  18  19  1   
 21  18  20  1   
@<TRIPOS>SUBSTRUCTURE
  1 ****   7 GROUP 4 **** **** 0
