@<TRIPOS>MOLECULE
CHEM097
24 23 1 0 0 
SMALL
NO_CHARGES


@<TRIPOS>ATOM
  1 H        8.1850    -0.9930     0.0000 H.spc     1 <1>   0.0000 
  2 C        7.5850    -2.0320     0.0000 C.3   1 <1>   0.0000 
  3 H        6.9850    -3.0720     0.0000 H.spc     1 <1>   0.0000 
  4 H        8.6240    -2.6320     0.0000 H.spc     1 <1>   0.0000 
  5 O        6.2860    -1.2820     0.0000 O.3   1 <1>   0.0000 
  6 C        4.9870    -2.0320     0.0000 C.2   1 <1>   0.0000 
  7 O        4.9870    -3.5320     0.0000 O.2   1 <1>   0.0000 
  8 C        3.6880    -1.2820     0.0000 C.2   1 <1>   0.0000 
  9 C        2.3880    -2.0320     0.0000 C.2   1 <1>   0.0000 
 10 O        2.3880    -3.5320     0.0000 O.2   1 <1>   0.0000 
 11 O        1.0890    -1.2820     0.0000 O.3   1 <1>   0.0000 
 12 C       -0.2100    -2.0320     0.0000 C.3   1 <1>   0.0000 
 13 H       -0.8100    -0.9930     0.0000 H.spc     1 <1>   0.0000 
 14 H       -1.2490    -2.6320     0.0000 H.spc     1 <1>   0.0000 
 15 H        0.3900    -3.0720     0.0000 H.spc     1 <1>   0.0000 
 16 S        3.6880     0.2180     0.0000 S.o   1 <1>   0.0000 
 17 C        2.3880     0.9680     0.0000 C.3   1 <1>   0.0000 
 18 H        2.9880     2.0070     0.0000 H.spc     1 <1>   0.0000 
 19 H        1.3490     1.5680     0.0000 H.spc     1 <1>   0.0000 
 20 H        1.7880    -0.0720     0.0000 H.spc     1 <1>   0.0000 
 21 C        4.9870     0.9680     0.0000 C.3   1 <1>   0.0000 
 22 H        5.5870    -0.0720     0.0000 H.spc     1 <1>   0.0000 
 23 H        6.0260     1.5680     0.0000 H.spc     1 <1>   0.0000 
 24 H        4.3870     2.0070     0.0000 H.spc     1 <1>   0.0000 
@<TRIPOS>BOND
  1   1   2  1   
  2   2   3  1   
  3   2   4  1   
  4   2   5  1   
  5   5   6  1   
  6   6   7  2   
  7   6   8  1   
  8   8   9  1   
  9   8  16  2   
 10   9  10  2   
 11   9  11  1   
 12  11  12  1   
 13  12  13  1   
 14  12  14  1   
 15  12  15  1   
 16  16  17  1   
 17  16  21  1   
 18  17  18  1   
 19  17  19  1   
 20  17  20  1   
 21  21  22  1   
 22  21  23  1   
 23  21  24  1   
@<TRIPOS>SUBSTRUCTURE
  1 ****   8 GROUP 4 **** **** 0
