@<TRIPOS>MOLECULE
CHEM075
32 33 1 0 0 
SMALL
USER_CHARGES


@<TRIPOS>ATOM
  1 H       -0.2040     3.6040    -1.1140 H.spc     1 <1>   0.4500 
  2 O        0.7120     3.8510    -0.8700 O.3   1 <1>  -0.5270 
  3 C        0.9770     3.1850     0.2950 C.2   1 <1>   0.1860 
  4 C        2.1610     3.2170     0.9300 C.2   1 <1>   0.1010 
  5 C        3.3690     3.9330     0.5480 C.2   1 <1>  -0.0280 
  6 C        3.3390     5.2330     0.2000 C.2   1 <1>  -0.3000 
  7 H        4.2360     5.7710    -0.0910 H.spc     1 <1>   0.1500 
  8 H        2.4100     5.7960     0.1840 H.spc     1 <1>   0.1500 
  9 C        4.6980     3.2830     0.5290 C.ar  1 <1>   0.0280 
 10 C        5.6380     3.5400     1.5330 C.ar  1 <1>  -0.1500 
 11 H        5.4020     4.2220     2.3460 H.spc     1 <1>   0.1500 
 12 C        6.8860     2.9110     1.5040 C.ar  1 <1>  -0.1500 
 13 H        7.6080     3.1150     2.2910 H.spc     1 <1>   0.1500 
 14 C        7.2120     2.0210     0.4780 C.ar  1 <1>   0.0820 
 15 O        8.4650     1.4780     0.5700 O.3   1 <1>  -0.3630 
 16 C        8.8410     0.5570    -0.4450 C.3   1 <1>   0.2800 
 17 H        8.1870    -0.3220    -0.4440 H.spc     1 <1>   0.0000 
 18 H        9.8570     0.2150    -0.2260 H.spc     1 <1>   0.0000 
 19 H        8.8570     1.0380    -1.4290 H.spc     1 <1>   0.0000 
 20 C        6.2760     1.7610    -0.5230 C.ar  1 <1>  -0.1500 
 21 H        6.4840     1.0770    -1.3390 H.spc     1 <1>   0.1500 
 22 C        5.0250     2.3880    -0.4970 C.ar  1 <1>  -0.1500 
 23 H        4.3050     2.1760    -1.2850 H.spc     1 <1>   0.1500 
 24 S        2.1240     2.2240     2.3610 S.3   1 <1>  -0.2420 
 25 C        0.4370     1.7780     2.0710 C.2   1 <1>   0.5810 
 26 S       -0.4230     0.7750     3.0890 S.2   1 <1>  -0.3800 
 27 N        0.0010     2.4030     0.8950 N.am  1 <1>  -0.4690 
 28 C       -1.3550     2.2140     0.4130 C.3   1 <1>   0.5800 
 29 H       -1.5490     1.1440     0.2890 H.spc     1 <1>   0.0000 
 30 H       -2.0530     2.6300     1.1480 H.spc     1 <1>   0.0000 
 31 O       -1.5640     2.8610    -0.8360 O.3   1 <1>  -0.6800 
 32 H       -2.4870     2.6640    -1.0810 H.spc     1 <1>   0.4000 
@<TRIPOS>BOND
  1   1   2  1   
  2   2   3  1   
  3   3   4  2   
  4   3  27  1   
  5   4   5  1   
  6   4  24  1   
  7   5   6  2   
  8   5   9  1   
  9   6   7  1   
 10   6   8  1   
 11   9  10  ar  
 12   9  22  ar  
 13  10  11  1   
 14  10  12  ar  
 15  12  13  1   
 16  12  14  ar  
 17  14  15  1   
 18  14  20  ar  
 19  15  16  1   
 20  16  17  1   
 21  16  18  1   
 22  16  19  1   
 23  20  21  1   
 24  20  22  ar  
 25  22  23  1   
 26  24  25  1   
 27  25  26  2   
 28  25  27  am  
 29  27  28  1   
 30  28  29  1   
 31  28  30  1   
 32  28  31  1   
 33  31  32  1   
@<TRIPOS>SUBSTRUCTURE
  1 ****   4 GROUP 4 **** **** 0
