@<TRIPOS>MOLECULE
CHEM101
31 32 1 0 0 
SMALL
USER_CHARGES


@<TRIPOS>ATOM
  1 H        1.8200    -7.4640    -1.0920 H.spc     1 <1>   0.1500 
  2 C        1.0830    -6.7070    -0.8370 C.ar  1 <1>  -0.1500 
  3 C        1.4860    -5.4980    -0.2770 C.ar  1 <1>  -0.1500 
  4 H        2.5410    -5.3160    -0.0860 H.spc     1 <1>   0.1500 
  5 C        0.5390    -4.5240     0.0550 C.ar  1 <1>  -0.1500 
  6 H        0.8960    -3.6180     0.5300 H.spc     1 <1>   0.1500 
  7 C       -0.8240    -4.7470    -0.1720 C.ar  1 <1>   0.1170 
  8 N       -1.8290    -3.7720     0.1490 N.am  1 <1>  -0.4770 
  9 C       -2.9600    -4.1540     0.8830 C.2   1 <1>   0.3790 
 10 S       -2.9340    -5.2460     2.1810 S.2   1 <1>  -0.3800 
 11 C       -4.2810    -3.5360     0.4720 C.3   1 <1>   0.3220 
 12 H       -4.8880    -3.3600     1.3700 H.spc     1 <1>   0.0000 
 13 C       -4.9840    -4.4740    -0.4200 C.1   1 <1>   0.3570 
 14 N       -5.5120    -5.2360    -1.1190 N.1   1 <1>  -0.5570 
 15 C       -4.1800    -2.2180    -0.2300 C.2   1 <1>   0.5690 
 16 O       -5.1670    -1.5420    -0.5200 O.2   1 <1>  -0.5700 
 17 N       -2.9530    -1.7690    -0.5850 N.am  1 <1>  -0.7300 
 18 H       -2.9700    -0.9090    -1.1240 H.spc     1 <1>   0.3700 
 19 C       -1.6670    -2.3470    -0.2180 C.3   1 <1>   0.6000 
 20 C       -0.7450    -2.0940    -1.4320 C.3   1 <1>   0.0000 
 21 H        0.3080    -2.2950    -1.2250 H.spc     1 <1>   0.0000 
 22 H       -1.0490    -2.7050    -2.2900 H.spc     1 <1>   0.0000 
 23 H       -0.7950    -1.0450    -1.7510 H.spc     1 <1>   0.0000 
 24 C       -1.1530    -1.5490     0.9960 C.3   1 <1>   0.0000 
 25 H       -0.1700    -1.8900     1.3310 H.spc     1 <1>   0.0000 
 26 H       -1.8360    -1.6370     1.8500 H.spc     1 <1>   0.0000 
 27 H       -1.0710    -0.4810     0.7600 H.spc     1 <1>   0.0000 
 28 C       -1.2160    -5.9760    -0.7260 C.ar  1 <1>  -0.1500 
 29 H       -2.2630    -6.1910    -0.9290 H.spc     1 <1>   0.1500 
 30 C       -0.2690    -6.9470    -1.0600 C.ar  1 <1>  -0.1500 
 31 H       -0.5910    -7.8910    -1.4930 H.spc     1 <1>   0.1500 
@<TRIPOS>BOND
  1   1   2  1   
  2   2   3  ar  
  3   2  30  ar  
  4   3   4  1   
  5   3   5  ar  
  6   5   6  1   
  7   5   7  ar  
  8   7   8  1   
  9   7  28  ar  
 10   8   9  am  
 11   8  19  1   
 12   9  10  2   
 13   9  11  1   
 14  11  12  1   
 15  11  13  1   
 16  11  15  1   
 17  13  14  3   
 18  15  16  2   
 19  15  17  am  
 20  17  18  1   
 21  17  19  1   
 22  19  20  1   
 23  19  24  1   
 24  20  21  1   
 25  20  22  1   
 26  20  23  1   
 27  24  25  1   
 28  24  26  1   
 29  24  27  1   
 30  28  29  1   
 31  28  30  ar  
 32  30  31  1   
@<TRIPOS>SUBSTRUCTURE
  1 ****   8 GROUP 4 **** **** 0
