@<TRIPOS>MOLECULE
CHEM124
31 32 1 0 0 
SMALL
USER_CHARGES


@<TRIPOS>ATOM
  1 H        5.5570     4.2380     1.2280 H.spc     1 <1>   0.4000 
  2 N        5.6210     3.2490     1.0130 N.pl3 1 <1>  -0.8840 
  3 H        6.5480     2.8340     1.0660 H.spc     1 <1>   0.4000 
  4 C        4.5350     2.5270     0.6740 C.2   1 <1>   0.1240 
  5 S        3.0120     3.3120     0.6080 S.3   1 <1>  -0.0800 
  6 C        2.2200     1.8910     0.1460 C.2   1 <1>  -0.1400 
  7 C        3.0780     0.8160     0.0590 C.2   1 <1>  -0.1810 
  8 C        4.4510     1.1770     0.3500 C.2   1 <1>  -0.0860 
  9 C        5.5840     0.2420     0.2990 C.2   1 <1>   0.8060 
 10 O        5.4630    -0.9370    -0.0190 O.2   1 <1>  -0.5700 
 11 O        6.7860     0.8030     0.6400 O.3   1 <1>  -0.4300 
 12 C        7.8870    -0.1060     0.5940 C.3   1 <1>   0.2800 
 13 H        7.7460    -0.9140     1.3190 H.spc     1 <1>   0.0000 
 14 H        8.0130    -0.5070    -0.4170 H.spc     1 <1>   0.0000 
 15 H        8.7920     0.4450     0.8620 H.spc     1 <1>   0.0000 
 16 C        2.5420    -0.5280    -0.3450 C.3   1 <1>   0.1810 
 17 H        2.9840    -1.3290     0.2580 H.spc     1 <1>   0.0000 
 18 H        2.8430    -0.6900    -1.3890 H.spc     1 <1>   0.0000 
 19 C        0.9940    -0.5780    -0.2310 C.3   1 <1>   0.2800 
 20 C        0.5310    -0.8200     1.2160 C.3   1 <1>   0.0000 
 21 H        0.9290    -0.0710     1.9080 H.spc     1 <1>   0.0000 
 22 H       -0.5610    -0.7630     1.2870 H.spc     1 <1>   0.0000 
 23 H        0.8520    -1.8040     1.5770 H.spc     1 <1>   0.0000 
 24 C        0.4660    -1.7260    -1.1030 C.3   1 <1>   0.0000 
 25 H       -0.6280    -1.7800    -1.0560 H.spc     1 <1>   0.0000 
 26 H        0.7200    -1.5640    -2.1580 H.spc     1 <1>   0.0000 
 27 H        0.8760    -2.6930    -0.7930 H.spc     1 <1>   0.0000 
 28 O        0.4060     0.6250    -0.7720 O.3   1 <1>  -0.5600 
 29 C        0.7480     1.8460    -0.0910 C.3   1 <1>   0.4600 
 30 H        0.4250     2.6730    -0.7320 H.spc     1 <1>   0.0000 
 31 H        0.1880     1.9060     0.8480 H.spc     1 <1>   0.0000 
@<TRIPOS>BOND
  1   1   2  1   
  2   2   3  1   
  3   2   4  1   
  4   4   5  1   
  5   4   8  2   
  6   5   6  1   
  7   6   7  2   
  8   6  29  1   
  9   7   8  1   
 10   7  16  1   
 11   8   9  1   
 12   9  10  2   
 13   9  11  1   
 14  11  12  1   
 15  12  13  1   
 16  12  14  1   
 17  12  15  1   
 18  16  17  1   
 19  16  18  1   
 20  16  19  1   
 21  19  20  1   
 22  19  24  1   
 23  19  28  1   
 24  20  21  1   
 25  20  22  1   
 26  20  23  1   
 27  24  25  1   
 28  24  26  1   
 29  24  27  1   
 30  28  29  1   
 31  29  30  1   
 32  29  31  1   
@<TRIPOS>SUBSTRUCTURE
  1 ****   7 GROUP 4 **** **** 0
