@<TRIPOS>MOLECULE
CHEM173
36 37 1 0 0 
SMALL
USER_CHARGES


@<TRIPOS>ATOM
  1 H        3.1680    -1.6510     1.4660 H.spc     1 <1>   0.1500 
  2 C        2.1170    -1.6180     1.1930 C.ar  1 <1>  -0.1500 
  3 C        1.4430    -0.4010     1.1610 C.ar  1 <1>  -0.1500 
  4 H        1.9690     0.5180     1.4070 H.spc     1 <1>   0.1500 
  5 C        0.0900    -0.3630     0.8280 C.ar  1 <1>  -0.1500 
  6 H       -0.4280     0.5950     0.8350 H.spc     1 <1>   0.1500 
  7 C       -0.6040    -1.5410     0.5050 C.ar  1 <1>  -0.1440 
  8 C        0.0940    -2.7600     0.4980 C.ar  1 <1>   0.0860 
  9 C        1.4420    -2.7970     0.8740 C.ar  1 <1>  -0.1500 
 10 H        1.9880    -3.7350     0.9290 H.spc     1 <1>   0.1500 
 11 C       -0.6600    -4.0030     0.1680 C.2   1 <1>   0.3030 
 12 N       -0.2290    -5.0670    -0.4410 N.2   1 <1>  -0.6610 
 13 C        0.9890    -5.1110    -1.0430 C.2   1 <1>   0.8410 
 14 O        1.4610    -4.2400    -1.7600 O.2   1 <1>  -0.5700 
 15 N        1.6050    -6.2930    -0.7740 N.am  1 <1>  -0.7300 
 16 H        1.0800    -6.9420    -0.2060 H.spc     1 <1>   0.3700 
 17 C        2.9070    -6.6210    -1.2810 C.3   1 <1>   0.3000 
 18 H        3.2620    -7.5240    -0.7810 H.spc     1 <1>   0.0000 
 19 H        2.8340    -6.7950    -2.3580 H.spc     1 <1>   0.0000 
 20 H        3.5960    -5.7930    -1.0940 H.spc     1 <1>   0.0000 
 21 C       -2.1310    -3.9460     0.5810 C.3   1 <1>   0.2610 
 22 H       -2.1530    -3.7420     1.6610 H.spc     1 <1>   0.0000 
 23 C       -2.8260    -5.2310     0.3750 C.1   1 <1>   0.3570 
 24 N       -3.4160    -6.2240     0.2510 N.1   1 <1>  -0.5570 
 25 C       -2.7980    -2.7600    -0.1730 C.3   1 <1>   0.0000 
 26 C       -2.7090    -2.9150    -1.7090 C.3   1 <1>   0.0000 
 27 H       -3.2200    -2.0870    -2.2150 H.spc     1 <1>   0.0000 
 28 H       -1.6740    -2.9180    -2.0660 H.spc     1 <1>   0.0000 
 29 H       -3.1830    -3.8430    -2.0470 H.spc     1 <1>   0.0000 
 30 C       -4.2920    -2.6360     0.2010 C.3   1 <1>   0.0000 
 31 H       -4.7290    -1.7260    -0.2270 H.spc     1 <1>   0.0000 
 32 H       -4.4250    -2.5880     1.2880 H.spc     1 <1>   0.0000 
 33 H       -4.8780    -3.4830    -0.1720 H.spc     1 <1>   0.0000 
 34 C       -2.0920    -1.4450     0.2560 C.3   1 <1>   0.1440 
 35 H       -2.5350    -1.0990     1.2010 H.spc     1 <1>   0.0000 
 36 H       -2.2830    -0.6590    -0.4870 H.spc     1 <1>   0.0000 
@<TRIPOS>BOND
  1   1   2  1   
  2   2   3  ar  
  3   2   9  ar  
  4   3   4  1   
  5   3   5  ar  
  6   5   6  1   
  7   5   7  ar  
  8   7   8  ar  
  9   7  34  1   
 10   8   9  ar  
 11   8  11  1   
 12   9  10  1   
 13  11  12  2   
 14  11  21  1   
 15  12  13  1   
 16  13  14  2   
 17  13  15  am  
 18  15  16  1   
 19  15  17  1   
 20  17  18  1   
 21  17  19  1   
 22  17  20  1   
 23  21  22  1   
 24  21  23  1   
 25  21  25  1   
 26  23  24  3   
 27  25  26  1   
 28  25  30  1   
 29  25  34  1   
 30  26  27  1   
 31  26  28  1   
 32  26  29  1   
 33  30  31  1   
 34  30  32  1   
 35  30  33  1   
 36  34  35  1   
 37  34  36  1   
@<TRIPOS>SUBSTRUCTURE
  1 ****  11 GROUP 4 **** **** 0
