@<TRIPOS>MOLECULE
CHEM112
32 33 1 0 0 
SMALL
USER_CHARGES


@<TRIPOS>ATOM
  1 H        3.3640    -6.9090     0.5770 H.spc     1 <1>   0.1500 
  2 C        3.3060    -5.8530     0.3270 C.ar  1 <1>  -0.1500 
  3 C        4.4620    -5.1360     0.0580 C.ar  1 <1>  -0.1500 
  4 H        5.4370    -5.6100     0.0890 H.spc     1 <1>   0.1500 
  5 C        4.3560    -3.7890    -0.2420 C.ar  1 <1>   0.1900 
  6 F        5.4690    -3.0820    -0.4790 F     1 <1>  -0.1900 
  7 C        3.1150    -3.1480    -0.2900 C.ar  1 <1>  -0.1500 
  8 H        3.1430    -2.0870    -0.5110 H.spc     1 <1>   0.1500 
  9 C        1.9190    -3.8500    -0.0540 C.ar  1 <1>   0.1170 
 10 N        0.6130    -3.1860    -0.0590 N.am  1 <1>  -0.2370 
 11 C        0.5440    -1.8210    -0.3970 C.2   1 <1>   0.6900 
 12 O        1.2170    -1.2930    -1.2840 O.2   1 <1>  -0.5700 
 13 N       -0.3920    -1.0710     0.2710 N.am  1 <1>  -0.7300 
 14 H       -0.9400    -1.5050     1.0040 H.spc     1 <1>   0.3700 
 15 C       -0.6120     0.3200    -0.0310 C.3   1 <1>   0.3000 
 16 H        0.3130     0.8770     0.1420 H.spc     1 <1>   0.0000 
 17 H       -1.4030     0.7000     0.6190 H.spc     1 <1>   0.0000 
 18 H       -0.9090     0.4210    -1.0780 H.spc     1 <1>   0.0000 
 19 C       -0.5350    -3.9520     0.1570 C.2   1 <1>   0.6510 
 20 N       -0.7770    -5.0680    -0.4520 N.2   1 <1>  -0.6960 
 21 C       -2.0340    -5.6690     0.0350 C.3   1 <1>   0.2460 
 22 H       -1.7870    -6.4210     0.7950 H.spc     1 <1>   0.0000 
 23 H       -2.5290    -6.1980    -0.7860 H.spc     1 <1>   0.0000 
 24 C       -2.9400    -4.5910     0.6180 C.3   1 <1>   0.2300 
 25 H       -3.5900    -5.0020     1.3970 H.spc     1 <1>   0.0000 
 26 C       -3.7840    -3.8930    -0.4410 C.3   1 <1>   0.0000 
 27 H       -3.1770    -3.4780    -1.2540 H.spc     1 <1>   0.0000 
 28 H       -4.3720    -3.0790    -0.0030 H.spc     1 <1>   0.0000 
 29 H       -4.4880    -4.6020    -0.8890 H.spc     1 <1>   0.0000 
 30 S       -1.7400    -3.4370     1.3230 S.3   1 <1>  -0.3710 
 31 C        2.0570    -5.2140     0.2810 C.ar  1 <1>  -0.1500 
 32 H        1.2000    -5.8350     0.5270 H.spc     1 <1>   0.1500 
@<TRIPOS>BOND
  1   1   2  1   
  2   2   3  ar  
  3   2  31  ar  
  4   3   4  1   
  5   3   5  ar  
  6   5   6  1   
  7   5   7  ar  
  8   7   8  1   
  9   7   9  ar  
 10   9  10  1   
 11   9  31  ar  
 12  10  11  am  
 13  10  19  1   
 14  11  12  2   
 15  11  13  am  
 16  13  14  1   
 17  13  15  1   
 18  15  16  1   
 19  15  17  1   
 20  15  18  1   
 21  19  20  2   
 22  19  30  1   
 23  20  21  1   
 24  21  22  1   
 25  21  23  1   
 26  21  24  1   
 27  24  25  1   
 28  24  26  1   
 29  24  30  1   
 30  26  27  1   
 31  26  28  1   
 32  26  29  1   
 33  31  32  1   
@<TRIPOS>SUBSTRUCTURE
  1 ****  10 GROUP 4 **** **** 0
