@<TRIPOS>MOLECULE
CHEM168
23 24 1 0 0 
SMALL
USER_CHARGES


@<TRIPOS>ATOM
  1 H       -3.1770     4.5180     0.0370 H.spc     1 <1>   0.1500 
  2 C       -2.1940     4.0510     0.0230 C.ar  1 <1>  -0.1500 
  3 C       -2.0970     2.6430    -0.0010 C.ar  1 <1>  -0.1500 
  4 H       -3.0070     2.0460    -0.0060 H.spc     1 <1>   0.1500 
  5 C       -0.8520     2.0050    -0.0190 C.ar  1 <1>  -0.1500 
  6 H       -0.7770     0.9250    -0.0370 H.spc     1 <1>   0.1500 
  7 C        0.2630     2.8070    -0.0120 C.ar  1 <1>   0.1000 
  8 C        0.1660     4.2120     0.0120 C.ar  1 <1>   0.1000 
  9 C       -1.0480     4.8530     0.0300 C.ar  1 <1>  -0.1500 
 10 H       -1.1210     5.9340     0.0480 H.spc     1 <1>   0.1500 
 11 N        1.4660     4.7100     0.0120 N.pl3 1 <1>  -0.5500 
 12 H        1.7380     5.6810     0.0250 H.spc     1 <1>   0.4000 
 13 C        2.3780     3.6580    -0.0110 C.2   1 <1>   0.5500 
 14 N        3.6660     3.6600    -0.0190 N.2   1 <1>  -0.6610 
 15 C        4.3090     4.8640    -0.0050 C.2   1 <1>   0.9310 
 16 O        3.7930     5.9770     0.0080 O.2   1 <1>  -0.5700 
 17 O        5.6530     4.6500    -0.0080 O.3   1 <1>  -0.4300 
 18 C        6.4360     5.8410     0.0000 C.3   1 <1>   0.2800 
 19 H        7.4920     5.5530     0.0080 H.spc     1 <1>   0.0000 
 20 H        6.2460     6.4320    -0.9010 H.spc     1 <1>   0.0000 
 21 H        6.2330     6.4300     0.9000 H.spc     1 <1>   0.0000 
 22 N        1.6200     2.4900    -0.0250 N.pl3 1 <1>  -0.5500 
 23 H        2.0130     1.5680    -0.0420 H.spc     1 <1>   0.4000 
@<TRIPOS>BOND
  1   1   2  1   
  2   2   3  ar  
  3   2   9  ar  
  4   3   4  1   
  5   3   5  ar  
  6   5   6  1   
  7   5   7  ar  
  8   7   8  ar  
  9   7  22  1   
 10   8   9  ar  
 11   8  11  1   
 12   9  10  1   
 13  11  12  1   
 14  11  13  1   
 15  13  14  2   
 16  13  22  1   
 17  14  15  1   
 18  15  16  2   
 19  15  17  1   
 20  17  18  1   
 21  18  19  1   
 22  18  20  1   
 23  18  21  1   
 24  22  23  1   
@<TRIPOS>SUBSTRUCTURE
  1 ****  11 GROUP 4 **** **** 0
