@<TRIPOS>MOLECULE
CHEM041
32 33 1 0 0 
SMALL
USER_CHARGES


@<TRIPOS>ATOM
  1 H       -0.4440     4.7150     1.6060 H.spc     1 <1>   0.0000 
  2 C        0.5100     4.3170     1.2460 C.3   1 <1>   0.1810 
  3 H        0.8350     3.5310     1.9350 H.spc     1 <1>   0.0000 
  4 H        1.2430     5.1290     1.2740 H.spc     1 <1>   0.0000 
  5 C        0.3580     3.7670    -0.1230 C.2   1 <1>   0.0460 
  6 N       -0.8320     3.1200    -0.4380 N.2   1 <1>  -0.2270 
  7 N       -0.8630     2.7240    -1.7000 N.2   1 <1>  -0.2210 
  8 S        0.5250     3.1310    -2.5420 S.3   1 <1>   0.1810 
  9 C        1.2700     3.8210    -1.1660 C.2   1 <1>  -0.0450 
 10 C        2.5910     4.3810    -1.2630 C.2   1 <1>   0.7150 
 11 O        2.8400     5.2920    -2.0520 O.2   1 <1>  -0.5700 
 12 N        3.5790     3.8620    -0.4280 N.am  1 <1>  -0.6600 
 13 C        4.8750     4.5350    -0.3360 C.3   1 <1>   0.3000 
 14 H        4.9360     4.9730     0.6680 H.spc     1 <1>   0.0000 
 15 H        4.9500     5.3590    -1.0530 H.spc     1 <1>   0.0000 
 16 C        6.0450     3.5570    -0.5540 C.3   1 <1>   0.2700 
 17 H        6.0440     3.2230    -1.5990 H.spc     1 <1>   0.0000 
 18 H        6.9730     4.1140    -0.3840 H.spc     1 <1>   0.0000 
 19 N        5.9720     2.3900     0.3550 N.3   1 <1>  -0.8100 
 20 C        7.0700     1.4370     0.1200 C.3   1 <1>   0.2700 
 21 H        7.1010     1.1180    -0.9290 H.spc     1 <1>   0.0000 
 22 H        6.8950     0.5370     0.7230 H.spc     1 <1>   0.0000 
 23 C        8.4310     1.9860     0.5330 C.3   1 <1>   0.0000 
 24 H        9.1850     1.1940     0.4710 H.spc     1 <1>   0.0000 
 25 H        8.7590     2.8000    -0.1200 H.spc     1 <1>   0.0000 
 26 H        8.4140     2.3520     1.5650 H.spc     1 <1>   0.0000 
 27 C        4.6690     1.7110     0.1780 C.3   1 <1>   0.2700 
 28 H        4.5830     0.8830     0.8920 H.spc     1 <1>   0.0000 
 29 H        4.6010     1.2840    -0.8320 H.spc     1 <1>   0.0000 
 30 C        3.4700     2.6560     0.4000 C.3   1 <1>   0.3000 
 31 H        2.5510     2.1060     0.1880 H.spc     1 <1>   0.0000 
 32 H        3.4360     2.9830     1.4460 H.spc     1 <1>   0.0000 
@<TRIPOS>BOND
  1   1   2  1   
  2   2   3  1   
  3   2   4  1   
  4   2   5  1   
  5   5   6  1   
  6   5   9  2   
  7   6   7  2   
  8   7   8  1   
  9   8   9  1   
 10   9  10  1   
 11  10  11  2   
 12  10  12  am  
 13  12  13  1   
 14  12  30  1   
 15  13  14  1   
 16  13  15  1   
 17  13  16  1   
 18  16  17  1   
 19  16  18  1   
 20  16  19  1   
 21  19  20  1   
 22  19  27  1   
 23  20  21  1   
 24  20  22  1   
 25  20  23  1   
 26  23  24  1   
 27  23  25  1   
 28  23  26  1   
 29  27  28  1   
 30  27  29  1   
 31  27  30  1   
 32  30  31  1   
 33  30  32  1   
@<TRIPOS>SUBSTRUCTURE
  1 ****  12 GROUP 4 **** **** 0
