@<TRIPOS>MOLECULE
CHEM068
34 37 1 0 0 
SMALL
USER_CHARGES


@<TRIPOS>ATOM
  1 H        2.3360    -0.8060     0.4230 H.spc     1 <1>   0.1500 
  2 C        1.6230    -0.0130     0.3000 C.2   1 <1>  -0.1360 
  3 C        1.7970     1.2990     0.0800 C.2   1 <1>   0.0810 
  4 C        3.0900     1.9930    -0.0240 C.ar  1 <1>   0.0280 
  5 C        4.2950     1.4200     0.4080 C.ar  1 <1>  -0.1500 
  6 H        4.3230     0.4250     0.8450 H.spc     1 <1>   0.1500 
  7 C        5.4990     2.1210     0.2990 C.ar  1 <1>  -0.1500 
  8 H        6.4270     1.6650     0.6380 H.spc     1 <1>   0.1500 
  9 C        5.5140     3.4020    -0.2450 C.ar  1 <1>  -0.1500 
 10 H        6.4520     3.9440    -0.3350 H.spc     1 <1>   0.1500 
 11 C        4.3260     3.9870    -0.6740 C.ar  1 <1>  -0.1500 
 12 H        4.3510     4.9860    -1.1040 H.spc     1 <1>   0.1500 
 13 C        3.1120     3.2950    -0.5520 C.ar  1 <1>  -0.1440 
 14 C        1.8330     3.9160    -1.0560 C.3   1 <1>   0.1440 
 15 H        1.9300     5.0080    -1.0500 H.spc     1 <1>   0.0000 
 16 H        1.7280     3.6110    -2.1070 H.spc     1 <1>   0.0000 
 17 C        0.5730     3.4640    -0.2570 C.3   1 <1>   0.3000 
 18 N        0.6060     2.0060    -0.0310 N.am  1 <1>  -0.4690 
 19 C       -0.4730     1.1690     0.1700 C.2   1 <1>   0.6300 
 20 O       -1.6650     1.3800     0.2180 O.2   1 <1>  -0.5700 
 21 C        0.1700    -0.2100     0.3660 C.2   1 <1>   0.5560 
 22 O       -0.3990    -1.2630     0.5440 O.2   1 <1>  -0.5700 
 23 C        0.4440     4.2170     1.0820 C.3   1 <1>   0.0000 
 24 H       -0.2660     3.7040     1.7430 H.spc     1 <1>   0.0000 
 25 H        1.3900     4.2910     1.6290 H.spc     1 <1>   0.0000 
 26 C       -0.1150     5.5960     0.7320 C.3   1 <1>   0.0000 
 27 H       -0.8400     5.9250     1.4850 H.spc     1 <1>   0.0000 
 28 H        0.6850     6.3450     0.7030 H.spc     1 <1>   0.0000 
 29 C       -0.7610     5.4630    -0.6460 C.3   1 <1>   0.0000 
 30 H       -1.7950     5.8220    -0.6480 H.spc     1 <1>   0.0000 
 31 H       -0.2090     6.0620    -1.3800 H.spc     1 <1>   0.0000 
 32 C       -0.6820     3.9800    -0.9980 C.3   1 <1>   0.0000 
 33 H       -1.6020     3.5120    -0.6380 H.spc     1 <1>   0.0000 
 34 H       -0.6410     3.8120    -2.0790 H.spc     1 <1>   0.0000 
@<TRIPOS>BOND
  1   1   2  1   
  2   2   3  2   
  3   2  21  1   
  4   3   4  1   
  5   3  18  1   
  6   4   5  ar  
  7   4  13  ar  
  8   5   6  1   
  9   5   7  ar  
 10   7   8  1   
 11   7   9  ar  
 12   9  10  1   
 13   9  11  ar  
 14  11  12  1   
 15  11  13  ar  
 16  13  14  1   
 17  14  15  1   
 18  14  16  1   
 19  14  17  1   
 20  17  18  1   
 21  17  23  1   
 22  17  32  1   
 23  18  19  am  
 24  19  20  2   
 25  19  21  1   
 26  21  22  2   
 27  23  24  1   
 28  23  25  1   
 29  23  26  1   
 30  26  27  1   
 31  26  28  1   
 32  26  29  1   
 33  29  30  1   
 34  29  31  1   
 35  29  32  1   
 36  32  33  1   
 37  32  34  1   
@<TRIPOS>SUBSTRUCTURE
  1 ****  18 GROUP 4 **** **** 0
