@<TRIPOS>MOLECULE
CHEM132
22 23 1 0 0 
SMALL
USER_CHARGES


@<TRIPOS>ATOM
  1 H        8.9970    -2.3490     0.1100 H.spc     1 <1>   0.5000 
  2 O        8.1150    -2.1750    -0.2800 O.3   1 <1>  -0.6500 
  3 C        7.3430    -3.1390     0.2740 C.2   1 <1>   0.8050 
  4 O        7.8340    -3.9410     1.0540 O.2   1 <1>  -0.5700 
  5 C        5.9800    -3.0510    -0.1810 C.2   1 <1>   0.0550 
  6 O        5.0740    -3.9630     0.2920 O.3   1 <1>  -0.2800 
  7 C        3.8630    -3.6780    -0.2700 C.2   1 <1>  -0.0400 
  8 C        2.7440    -4.5750     0.1180 C.3   1 <1>   0.4360 
  9 H        2.6210    -5.3740    -0.6220 H.spc     1 <1>   0.0000 
 10 H        2.9260    -5.0410     1.0930 H.spc     1 <1>   0.0000 
 11 N        1.4870    -3.8550     0.2170 N.pl3 1 <1>   0.0480 
 12 C        0.4990    -3.8370    -0.7270 C.2   1 <1>   0.0370 
 13 H        0.5690    -4.3680    -1.6680 H.spc     1 <1>   0.1500 
 14 N       -0.5190    -3.1020    -0.3410 N.2   1 <1>  -0.5650 
 15 C       -0.1760    -2.6300     0.9000 C.2   1 <1>   0.0770 
 16 H       -0.8420    -1.9880     1.4610 H.spc     1 <1>   0.1500 
 17 C        1.0680    -3.0880     1.2690 C.2   1 <1>  -0.3020 
 18 H        1.6660    -2.9330     2.1570 H.spc     1 <1>   0.1500 
 19 C        3.9840    -2.5920    -1.1130 C.2   1 <1>  -0.1500 
 20 H        3.1910    -2.1400    -1.6950 H.spc     1 <1>   0.1500 
 21 C        5.3400    -2.1880    -1.0520 C.2   1 <1>  -0.1500 
 22 H        5.8050    -1.3640    -1.5770 H.spc     1 <1>   0.1500 
@<TRIPOS>BOND
  1   1   2  1   
  2   2   3  1   
  3   3   4  2   
  4   3   5  1   
  5   5   6  1   
  6   5  21  2   
  7   6   7  1   
  8   7   8  1   
  9   7  19  2   
 10   8   9  1   
 11   8  10  1   
 12   8  11  1   
 13  11  12  1   
 14  11  17  1   
 15  12  13  1   
 16  12  14  2   
 17  14  15  1   
 18  15  16  1   
 19  15  17  2   
 20  17  18  1   
 21  19  20  1   
 22  19  21  1   
 23  21  22  1   
@<TRIPOS>SUBSTRUCTURE
  1 ****   7 GROUP 4 **** **** 0
