@<TRIPOS>MOLECULE
CHEM043
21 21 1 0 0 
SMALL
USER_CHARGES


@<TRIPOS>ATOM
  1 H        0.6590    -0.8060     0.1410 H.spc     1 <1>   0.2700 
  2 N        0.3250     0.1460     0.0950 N.pl3 1 <1>   0.0330 
  3 C       -0.9740     0.5410     0.0860 C.2   1 <1>   0.2440 
  4 BR      -2.3980    -0.6260     0.1560 Br    1 <1>  -0.0580 
  5 N       -1.0990     1.8400     0.0210 N.2   1 <1>  -0.5650 
  6 C        0.1950     2.3190    -0.0130 C.2   1 <1>   0.0460 
  7 C        0.4510     3.7770    -0.0890 C.3   1 <1>   0.1810 
  8 H        0.9700     4.0270    -1.0200 H.spc     1 <1>   0.0000 
  9 H        1.0660     4.1040     0.7550 H.spc     1 <1>   0.0000 
 10 H       -0.4870     4.3400    -0.0630 H.spc     1 <1>   0.0000 
 11 C        1.1080     1.2760     0.0320 C.2   1 <1>  -0.2370 
 12 C        2.5440     1.3030     0.0180 C.2   1 <1>   0.8050 
 13 O        3.2420     2.3050    -0.0440 O.2   1 <1>  -0.5700 
 14 O        3.0170     0.0240     0.0870 O.3   1 <1>  -0.4300 
 15 C        4.4470    -0.0680     0.0830 C.3   1 <1>   0.2800 
 16 H        4.8420     0.3540    -0.8480 H.spc     1 <1>   0.0000 
 17 H        4.8560     0.4800     0.9400 H.spc     1 <1>   0.0000 
 18 C        4.8270    -1.5320     0.1830 C.3   1 <1>   0.0000 
 19 H        4.4200    -1.9740     1.0980 H.spc     1 <1>   0.0000 
 20 H        4.4090    -2.0970    -0.6560 H.spc     1 <1>   0.0000 
 21 H        5.9140    -1.6540     0.1850 H.spc     1 <1>   0.0000 
@<TRIPOS>BOND
  1   1   2  1   
  2   2   3  1   
  3   2  11  1   
  4   3   4  1   
  5   3   5  2   
  6   5   6  1   
  7   6   7  1   
  8   6  11  2   
  9   7   8  1   
 10   7   9  1   
 11   7  10  1   
 12  11  12  1   
 13  12  13  2   
 14  12  14  1   
 15  14  15  1   
 16  15  16  1   
 17  15  17  1   
 18  15  18  1   
 19  18  19  1   
 20  18  20  1   
 21  18  21  1   
@<TRIPOS>SUBSTRUCTURE
  1 ****  11 GROUP 4 **** **** 0
