@<TRIPOS>MOLECULE
CHEM163
25 27 1 0 0 
SMALL
USER_CHARGES


@<TRIPOS>ATOM
  1 H        1.3970     2.1000    -0.9120 H.spc     1 <1>   0.1500 
  2 C        0.4210     1.8980    -0.4940 C.2   1 <1>  -0.0100 
  3 O       -0.5990     2.6400    -0.9980 O.3   1 <1>  -0.2800 
  4 C       -1.7360     2.2430    -0.3520 C.2   1 <1>  -0.0400 
  5 C       -2.9890     2.9350    -0.7520 C.3   1 <1>   0.4260 
  6 H       -2.8590     4.0120    -0.5870 H.spc     1 <1>   0.0000 
  7 H       -3.1550     2.7650    -1.8230 H.spc     1 <1>   0.0000 
  8 N       -4.1210     2.4360     0.0190 N.2   1 <1>  -0.6960 
  9 C       -5.2660     2.9730    -0.1910 C.2   1 <1>   0.5860 
 10 C       -6.4250     2.5020     0.5610 C.2   1 <1>   0.1410 
 11 N       -6.5170     1.5180     1.5160 N.2   1 <1>  -0.5650 
 12 C       -7.7880     1.5090     1.8620 C.2   1 <1>   0.0370 
 13 H       -8.2360     0.8560     2.5990 H.spc     1 <1>   0.1500 
 14 N       -8.5180     2.4430     1.1740 N.pl3 1 <1>   0.0330 
 15 H       -9.5060     2.6280     1.2620 H.spc     1 <1>   0.2700 
 16 C       -7.6600     3.0870     0.3350 C.2   1 <1>  -0.0260 
 17 N       -8.0000     4.0850    -0.5210 N.2   1 <1>  -0.5760 
 18 C       -6.9480     4.4820    -1.1790 C.2   1 <1>   0.4400 
 19 H       -7.0260     5.2900    -1.9260 H.spc     1 <1>   0.0600 
 20 N       -5.6640     3.9860    -1.0490 N.pl3 1 <1>  -0.5000 
 21 H       -4.9510     4.3970    -1.6310 H.spc     1 <1>   0.4000 
 22 C       -1.4350     1.2510     0.5590 C.2   1 <1>  -0.1500 
 23 H       -2.1480     0.7580     1.2070 H.spc     1 <1>   0.1500 
 24 C       -0.0410     1.0290     0.4660 C.2   1 <1>  -0.1500 
 25 H        0.5530     0.3230     1.0290 H.spc     1 <1>   0.1500 
@<TRIPOS>BOND
  1   1   2  1   
  2   2   3  1   
  3   2  24  2   
  4   3   4  1   
  5   4   5  1   
  6   4  22  2   
  7   5   6  1   
  8   5   7  1   
  9   5   8  1   
 10   8   9  2   
 11   9  10  1   
 12   9  20  1   
 13  10  11  1   
 14  10  16  2   
 15  11  12  2   
 16  12  13  1   
 17  12  14  1   
 18  14  15  1   
 19  14  16  1   
 20  16  17  1   
 21  17  18  2   
 22  18  19  1   
 23  18  20  1   
 24  20  21  1   
 25  22  23  1   
 26  22  24  1   
 27  24  25  1   
@<TRIPOS>SUBSTRUCTURE
  1 ****   8 GROUP 4 **** **** 0
