@<TRIPOS>MOLECULE
CHEM118
16 17 1 0 0 
SMALL
USER_CHARGES


@<TRIPOS>ATOM
  1 H       -1.5240     3.3120     0.0000 H.spc     1 <1>   0.1500 
  2 C       -0.5660     2.7980     0.0000 C.ar  1 <1>  -0.1500 
  3 C       -0.5500     1.3880     0.0000 C.ar  1 <1>   0.1900 
  4 F       -1.7160     0.7290     0.0010 F     1 <1>  -0.1900 
  5 C        0.6390     0.6600     0.0000 C.ar  1 <1>  -0.1500 
  6 H        0.6310    -0.4210     0.0000 H.spc     1 <1>   0.1500 
  7 C        1.7970     1.3970    -0.0010 C.ar  1 <1>   0.1170 
  8 C        1.7920     2.7950    -0.0010 C.ar  1 <1>   0.1170 
  9 C        0.6280     3.5270    -0.0010 C.ar  1 <1>  -0.1500 
 10 H        0.6280     4.6100    -0.0010 H.spc     1 <1>   0.1500 
 11 N        3.1160     3.2290    -0.0010 N.am  1 <1>  -0.5470 
 12 H        3.4360     4.1860     0.0000 H.spc     1 <1>   0.3700 
 13 C        3.9490     2.1040    -0.0010 C.2   1 <1>   0.5000 
 14 S        5.5970     2.1100    -0.0020 S.2   1 <1>  -0.3800 
 15 N        3.1240     0.9720    -0.0010 N.am  1 <1>  -0.5470 
 16 H        3.4510     0.0180    -0.0020 H.spc     1 <1>   0.3700 
@<TRIPOS>BOND
  1   1   2  1   
  2   2   3  ar  
  3   2   9  ar  
  4   3   4  1   
  5   3   5  ar  
  6   5   6  1   
  7   5   7  ar  
  8   7   8  ar  
  9   7  15  1   
 10   8   9  ar  
 11   8  11  1   
 12   9  10  1   
 13  11  12  1   
 14  11  13  am  
 15  13  14  2   
 16  13  15  am  
 17  15  16  1   
@<TRIPOS>SUBSTRUCTURE
  1 ****   7 GROUP 4 **** **** 0
