@<TRIPOS>MOLECULE
CHEM019
33 34 1 0 0 
SMALL
USER_CHARGES


@<TRIPOS>ATOM
  1 H        0.4550    -0.3210    -1.6700 H.spc      1 <1>   0.1500 
  2 C       -0.1150     0.4980    -1.2410 C.2   1 <1>  -0.1500 
  3 C       -1.3820     0.7320    -1.6140 C.2   1 <1>  -0.2760 
  4 C       -2.0730    -0.1040    -2.6530 C.3   1 <1>   0.1380 
  5 H       -2.4500     0.5290    -3.4620 H.spc      1 <1>   0.0000 
  6 H       -2.9130    -0.6530    -2.2160 H.spc      1 <1>   0.0000 
  7 H       -1.3950    -0.8400    -3.1000 H.spc      1 <1>   0.0000 
  8 C       -2.1640     1.8970    -1.0290 C.3   1 <1>   0.5620 
  9 H       -2.4220     2.5680    -1.8580 H.spc      1 <1>   0.0000 
 10 C       -3.4660     1.4610    -0.3630 C.ar  1 <1>   0.1660 
 11 N       -4.6180     1.6470    -1.0630 N.ar  1 <1>  -0.6200 
 12 C       -5.7720     1.2460    -0.4850 C.ar  1 <1>   0.1600 
 13 H       -6.6690     1.4200    -1.0730 H.spc      1 <1>   0.1500 
 14 C       -5.8440     0.6520     0.7630 C.ar  1 <1>  -0.1500 
 15 H       -6.7990     0.3490     1.1770 H.spc      1 <1>   0.1500 
 16 C       -4.6620     0.4550     1.4650 C.ar  1 <1>  -0.1500 
 17 H       -4.6770    -0.0090     2.4470 H.spc      1 <1>   0.1500 
 18 C       -3.4560     0.8610     0.8980 C.ar  1 <1>  -0.1500 
 19 H       -2.5240     0.7130     1.4340 H.spc      1 <1>   0.1500 
 20 O       -1.4300     2.7230    -0.0950 O.3   1 <1>  -0.3570 
 21 C       -0.1250     2.4090     0.2430 C.2   1 <1>  -0.0610 
 22 C        0.4270     3.3570     1.2720 C.3   1 <1>   0.1380 
 23 H        1.1570     2.8830     1.9340 H.spc      1 <1>   0.0000 
 24 H        0.8900     4.2190     0.7820 H.spc      1 <1>   0.0000 
 25 H       -0.3780     3.7260     1.9170 H.spc      1 <1>   0.0000 
 26 C        0.5370     1.3530    -0.2720 C.2   1 <1>   0.0140 
 27 C        1.9570     1.0870     0.1090 C.2   1 <1>   0.7060 
 28 O        2.8120     1.9450     0.2650 O.2   1 <1>  -0.5700 
 29 O        2.1410    -0.2520     0.2620 O.3   1 <1>  -0.4300 
 30 C        3.4710    -0.6140     0.6330 C.3   1 <1>   0.2800 
 31 H        3.5080    -1.7020     0.7420 H.spc      1 <1>   0.0000 
 32 H        3.7400    -0.1610     1.5920 H.spc      1 <1>   0.0000 
 33 H        4.1800    -0.3200    -0.1480 H.spc      1 <1>   0.0000 
@<TRIPOS>BOND
  1   1   2  1   
  2   2   3  2   
  3   2  26  1   
  4   3   4  1   
  5   3   8  1   
  6   4   5  1   
  7   4   6  1   
  8   4   7  1   
  9   8   9  1   
 10   8  10  1   
 11   8  20  1   
 12  10  11  ar  
 13  10  18  ar  
 14  11  12  ar  
 15  12  13  1   
 16  12  14  ar  
 17  14  15  1   
 18  14  16  ar  
 19  16  17  1   
 20  16  18  ar  
 21  18  19  1   
 22  20  21  1   
 23  21  22  1   
 24  21  26  2   
 25  22  23  1   
 26  22  24  1   
 27  22  25  1   
 28  26  27  1   
 29  27  28  2   
 30  27  29  1   
 31  29  30  1   
 32  30  31  1   
 33  30  32  1   
 34  30  33  1   
@<TRIPOS>SUBSTRUCTURE
  1 ****   8 GROUP 4 **** **** 0
