@<TRIPOS>MOLECULE
CHEM065
34 34 1 0 0 
SMALL
USER_CHARGES


@<TRIPOS>ATOM
  1 H        1.3550    -0.0370    -0.6610 H.spc     1 <1>   0.3700 
  2 N        0.9830    -0.8890    -0.2600 N.am  1 <1>  -0.7300 
  3 C        1.8370    -1.9440    -0.0120 C.2   1 <1>   0.5690 
  4 O        1.4650    -3.0140     0.4570 O.2   1 <1>  -0.5700 
  5 C        3.2870    -1.6510    -0.3890 C.3   1 <1>   0.0610 
  6 H        3.5470    -0.6640     0.0130 H.spc     1 <1>   0.0000 
  7 C        4.2320    -2.6810     0.2250 C.3   1 <1>   0.0000 
  8 H        4.1210    -2.7110     1.3140 H.spc     1 <1>   0.0000 
  9 H        4.0310    -3.6880    -0.1570 H.spc     1 <1>   0.0000 
 10 H        5.2750    -2.4350    -0.0010 H.spc     1 <1>   0.0000 
 11 C        3.4380    -1.6250    -1.9080 C.3   1 <1>   0.0000 
 12 H        4.4770    -1.4290    -2.1940 H.spc     1 <1>   0.0000 
 13 H        3.1350    -2.5800    -2.3520 H.spc     1 <1>   0.0000 
 14 H        2.8160    -0.8440    -2.3580 H.spc     1 <1>   0.0000 
 15 C       -0.4520    -0.9640     0.0170 C.3   1 <1>   0.3000 
 16 H       -0.5830    -1.6360     0.8740 H.spc     1 <1>   0.0000 
 17 C       -1.1720    -1.5320    -1.2140 C.3   1 <1>   0.0000 
 18 H       -1.3530    -0.7290    -1.9410 H.spc     1 <1>   0.0000 
 19 H       -0.5210    -2.2460    -1.7380 H.spc     1 <1>   0.0000 
 20 C       -2.4840    -2.2560    -0.9230 C.3   1 <1>   0.0000 
 21 H       -3.0390    -2.3360    -1.8660 H.spc     1 <1>   0.0000 
 22 H       -2.2610    -3.2890    -0.6250 H.spc     1 <1>   0.0000 
 23 C       -3.3980    -1.6490     0.1370 C.3   1 <1>   0.0000 
 24 H       -4.4080    -2.0430    -0.0330 H.spc     1 <1>   0.0000 
 25 H       -3.1020    -2.0140     1.1290 H.spc     1 <1>   0.0000 
 26 C       -3.4610    -0.1260     0.1410 C.3   1 <1>   0.0000 
 27 H       -3.4610     0.2760    -0.8790 H.spc     1 <1>   0.0000 
 28 H       -4.4180     0.1680     0.5910 H.spc     1 <1>   0.0000 
 29 C       -2.3530     0.5060     0.9810 C.3   1 <1>   0.0000 
 30 H       -2.6020     1.5630     1.1390 H.spc     1 <1>   0.0000 
 31 H       -2.3380     0.0470     1.9770 H.spc     1 <1>   0.0000 
 32 C       -0.9540     0.4420     0.3760 C.3   1 <1>   0.0000 
 33 H       -0.2620     0.8940     1.0990 H.spc     1 <1>   0.0000 
 34 H       -0.9140     1.0890    -0.5110 H.spc     1 <1>   0.0000 
@<TRIPOS>BOND
  1   1   2  1   
  2   2   3  am  
  3   2  15  1   
  4   3   4  2   
  5   3   5  1   
  6   5   6  1   
  7   5   7  1   
  8   5  11  1   
  9   7   8  1   
 10   7   9  1   
 11   7  10  1   
 12  11  12  1   
 13  11  13  1   
 14  11  14  1   
 15  15  16  1   
 16  15  17  1   
 17  15  32  1   
 18  17  18  1   
 19  17  19  1   
 20  17  20  1   
 21  20  21  1   
 22  20  22  1   
 23  20  23  1   
 24  23  24  1   
 25  23  25  1   
 26  23  26  1   
 27  26  27  1   
 28  26  28  1   
 29  26  29  1   
 30  29  30  1   
 31  29  31  1   
 32  29  32  1   
 33  32  33  1   
 34  32  34  1   
@<TRIPOS>SUBSTRUCTURE
  1 ****  15 GROUP 4 **** **** 0
