@<TRIPOS>MOLECULE
CHEM128
19 19 1 0 0 
SMALL
USER_CHARGES


@<TRIPOS>ATOM
  1 H       10.1090    -1.1710    -1.4070 H.spc     1 <1>   0.1770 
  2 C        9.2700    -1.7500    -1.1010 C.1   1 <1>  -0.1770 
  3 C        8.3180    -2.3960    -0.7520 C.1   1 <1>  -0.2000 
  4 C        7.1530    -3.1820    -0.3280 C.3   1 <1>   0.4700 
  5 H        6.9880    -3.9970    -1.0430 H.spc     1 <1>   0.0000 
  6 H        7.3560    -3.6300     0.6520 H.spc     1 <1>   0.0000 
  7 N        5.9840    -2.3160    -0.2530 N.3   1 <1>  -0.9000 
  8 H        5.8230    -1.9010    -1.1710 H.spc     1 <1>   0.3600 
  9 C        4.7940    -3.0780     0.1240 C.3   1 <1>   0.4500 
 10 H        4.9150    -3.4900     1.1330 H.spc     1 <1>   0.0000 
 11 H        4.6410    -3.9200    -0.5630 H.spc     1 <1>   0.0000 
 12 C        3.5940    -2.2010     0.1050 C.2   1 <1>  -0.0400 
 13 O        2.6850    -2.4260    -0.8890 O.3   1 <1>  -0.2800 
 14 C        1.6840    -1.5230    -0.7220 C.2   1 <1>  -0.0100 
 15 H        0.8820    -1.5780    -1.4440 H.spc     1 <1>   0.1500 
 16 C        1.9360    -0.7190     0.3640 C.2   1 <1>  -0.1500 
 17 H        1.3090     0.0860     0.7220 H.spc     1 <1>   0.1500 
 18 C        3.1710    -1.1550     0.9000 C.2   1 <1>  -0.1500 
 19 H        3.7020    -0.7570     1.7540 H.spc     1 <1>   0.1500 
@<TRIPOS>BOND
  1   1   2  1   
  2   2   3  3   
  3   3   4  1   
  4   4   5  1   
  5   4   6  1   
  6   4   7  1   
  7   7   8  1   
  8   7   9  1   
  9   9  10  1   
 10   9  11  1   
 11   9  12  1   
 12  12  13  1   
 13  12  18  2   
 14  13  14  1   
 15  14  15  1   
 16  14  16  2   
 17  16  17  1   
 18  16  18  1   
 19  18  19  1   
@<TRIPOS>SUBSTRUCTURE
  1 ****   9 GROUP 4 **** **** 0
