@<TRIPOS>MOLECULE
CHEM026
23 23 1 0 0 
SMALL
USER_CHARGES


@<TRIPOS>ATOM
  1 H       -4.1600    -0.1250     0.6980 H.spc      1 <1>   0.1500 
  2 C       -3.5550    -0.7260     0.0270 C.ar  1 <1>  -0.1500 
  3 C       -2.1670    -0.7830     0.1760 C.ar  1 <1>  -0.1500 
  4 H       -1.7060    -0.2200     0.9830 H.spc      1 <1>   0.1500 
  5 C       -1.3830    -1.5600    -0.6960 C.ar  1 <1>  -0.1440 
  6 C        0.1320    -1.6580    -0.5550 C.3   1 <1>   0.4140 
  7 H        0.5220    -2.0490    -1.5050 H.spc      1 <1>   0.0000 
  8 N        0.4490    -2.6140     0.5120 N.3   1 <1>  -0.9000 
  9 H        0.1480    -2.2380     1.4090 H.spc      1 <1>   0.3600 
 10 C        1.8570    -2.9740     0.5720 C.3   1 <1>   0.2700 
 11 H        1.9930    -3.7750     1.3050 H.spc      1 <1>   0.0000 
 12 H        2.2150    -3.3510    -0.3920 H.spc      1 <1>   0.0000 
 13 H        2.4820    -2.1330     0.8850 H.spc      1 <1>   0.0000 
 14 C        0.7810    -0.2830    -0.3410 C.3   1 <1>   0.0000 
 15 H        0.4240     0.4370    -1.0860 H.spc      1 <1>   0.0000 
 16 H        1.8700    -0.3400    -0.4410 H.spc      1 <1>   0.0000 
 17 H        0.5620     0.1280     0.6510 H.spc      1 <1>   0.0000 
 18 C       -2.0320    -2.3000    -1.7020 C.ar  1 <1>  -0.1500 
 19 H       -1.4560    -2.9340    -2.3730 H.spc      1 <1>   0.1500 
 20 C       -3.4200    -2.2430    -1.8480 C.ar  1 <1>  -0.1500 
 21 H       -3.9190    -2.8140    -2.6240 H.spc      1 <1>   0.1500 
 22 C       -4.1670    -1.4550    -0.9840 C.ar  1 <1>   0.1900 
 23 F       -5.4980    -1.4010    -1.1230 F     1 <1>  -0.1900 
@<TRIPOS>BOND
  1   1   2  1   
  2   2   3  ar  
  3   2  22  ar  
  4   3   4  1   
  5   3   5  ar  
  6   5   6  1   
  7   5  18  ar  
  8   6   7  1   
  9   6   8  1   
 10   6  14  1   
 11   8   9  1   
 12   8  10  1   
 13  10  11  1   
 14  10  12  1   
 15  10  13  1   
 16  14  15  1   
 17  14  16  1   
 18  14  17  1   
 19  18  19  1   
 20  18  20  ar  
 21  20  21  1   
 22  20  22  ar  
 23  22  23  1   
@<TRIPOS>SUBSTRUCTURE
  1 ****   5 GROUP 4 **** **** 0
