@<TRIPOS>MOLECULE
CHEM145
29 28 1 0 0 
SMALL
USER_CHARGES


@<TRIPOS>ATOM
  1 H        0.4560    -1.1880    -1.3700 H.spc     1 <1>   0.3700 
  2 N        0.4110    -0.6560    -0.5110 N.am  1 <1>  -0.7300 
  3 C       -0.7970    -0.3380     0.0410 C.2   1 <1>   0.6900 
  4 O       -0.9120     0.2940     1.0810 O.2   1 <1>  -0.5700 
  5 N       -1.8400    -0.8100    -0.7080 N.am  1 <1>  -0.7300 
  6 H       -1.6230    -1.3240    -1.5470 H.spc     1 <1>   0.3700 
  7 C       -3.2460    -0.6210    -0.3760 C.3   1 <1>   0.3000 
  8 H       -3.7960    -1.1290    -1.1770 H.spc     1 <1>   0.0000 
  9 C       -3.6260    -1.2920     0.9410 C.3   1 <1>   0.0000 
 10 H       -4.7090    -1.2480     1.0990 H.spc     1 <1>   0.0000 
 11 H       -3.1450    -0.8120     1.8000 H.spc     1 <1>   0.0000 
 12 H       -3.3270    -2.3460     0.9400 H.spc     1 <1>   0.0000 
 13 C       -3.6520     0.8510    -0.3980 C.3   1 <1>   0.0000 
 14 H       -3.3830     1.3130    -1.3550 H.spc     1 <1>   0.0000 
 15 H       -3.1630     1.4230     0.3950 H.spc     1 <1>   0.0000 
 16 H       -4.7340     0.9540    -0.2660 H.spc     1 <1>   0.0000 
 17 C        1.6780    -0.2620     0.0990 C.3   1 <1>   0.3610 
 18 H        1.6040    -0.4540     1.1760 H.spc     1 <1>   0.0000 
 19 C        2.7800    -1.1460    -0.4850 C.2   1 <1>   0.6590 
 20 O        2.6710    -1.7800    -1.5300 O.2   1 <1>  -0.5700 
 21 O        3.8940    -1.1090     0.2980 O.3   1 <1>  -0.4300 
 22 C        4.9770    -1.9000    -0.1930 C.3   1 <1>   0.2800 
 23 H        5.3050    -1.5340    -1.1710 H.spc     1 <1>   0.0000 
 24 H        4.6880    -2.9540    -0.2500 H.spc     1 <1>   0.0000 
 25 H        5.8110    -1.8070     0.5080 H.spc     1 <1>   0.0000 
 26 C        1.9940     1.2030    -0.1700 C.3   1 <1>   0.0000 
 27 H        2.9490     1.4890     0.2820 H.spc     1 <1>   0.0000 
 28 H        2.0640     1.4010    -1.2460 H.spc     1 <1>   0.0000 
 29 H        1.2180     1.8590     0.2380 H.spc     1 <1>   0.0000 
@<TRIPOS>BOND
  1   1   2  1   
  2   2   3  am  
  3   2  17  1   
  4   3   4  2   
  5   3   5  am  
  6   5   6  1   
  7   5   7  1   
  8   7   8  1   
  9   7   9  1   
 10   7  13  1   
 11   9  10  1   
 12   9  11  1   
 13   9  12  1   
 14  13  14  1   
 15  13  15  1   
 16  13  16  1   
 17  17  18  1   
 18  17  19  1   
 19  17  26  1   
 20  19  20  2   
 21  19  21  1   
 22  21  22  1   
 23  22  23  1   
 24  22  24  1   
 25  22  25  1   
 26  26  27  1   
 27  26  28  1   
 28  26  29  1   
@<TRIPOS>SUBSTRUCTURE
  1 ****   2 GROUP 4 **** **** 0
