@<TRIPOS>MOLECULE
CHEM022
24 24 1 0 0 
SMALL
USER_CHARGES


@<TRIPOS>ATOM
  1 H        6.0790    -1.0450     0.4590 H.spc      1 <1>   0.4000 
  2 O        5.3860    -1.4730    -0.0730 O.3   1 <1>  -0.6800 
  3 C        4.1560    -0.8090     0.2090 C.3   1 <1>   0.2800 
  4 H        3.9370    -0.9620     1.2730 H.spc      1 <1>   0.0000 
  5 C        4.2620     0.7030    -0.0900 C.3   1 <1>   0.2700 
  6 H        4.7530     1.1670     0.7770 H.spc      1 <1>   0.0000 
  7 H        4.9400     0.8660    -0.9370 H.spc      1 <1>   0.0000 
  8 N        2.9780     1.3590    -0.3910 N.3   1 <1>  -0.8100 
  9 C        3.0070     2.7740    -0.0370 C.3   1 <1>   0.2700 
 10 H        3.8330     3.2810    -0.5470 H.spc      1 <1>   0.0000 
 11 H        3.1200     2.9260     1.0420 H.spc      1 <1>   0.0000 
 12 H        2.0850     3.2710    -0.3590 H.spc      1 <1>   0.0000 
 13 C        1.8510     0.6590     0.2230 C.3   1 <1>   0.2700 
 14 H        0.9180     1.2110     0.0470 H.spc      1 <1>   0.0000 
 15 H        1.9790     0.5970     1.3120 H.spc      1 <1>   0.0000 
 16 C        1.6960    -0.7440    -0.4020 C.3   1 <1>   0.0000 
 17 H        1.2220    -0.6330    -1.3870 H.spc      1 <1>   0.0000 
 18 C        0.7610    -1.5990     0.4540 C.3   1 <1>   0.0000 
 19 H       -0.2070    -1.1020     0.5870 H.spc      1 <1>   0.0000 
 20 H        1.1880    -1.7830     1.4450 H.spc      1 <1>   0.0000 
 21 H        0.5760    -2.5680    -0.0220 H.spc      1 <1>   0.0000 
 22 C        3.0480    -1.4480    -0.6220 C.3   1 <1>   0.0000 
 23 H        2.9880    -2.5240    -0.4160 H.spc      1 <1>   0.0000 
 24 H        3.3210    -1.3780    -1.6840 H.spc      1 <1>   0.0000 
@<TRIPOS>BOND
  1   1   2  1   
  2   2   3  1   
  3   3   4  1   
  4   3   5  1   
  5   3  22  1   
  6   5   6  1   
  7   5   7  1   
  8   5   8  1   
  9   8   9  1   
 10   8  13  1   
 11   9  10  1   
 12   9  11  1   
 13   9  12  1   
 14  13  14  1   
 15  13  15  1   
 16  13  16  1   
 17  16  17  1   
 18  16  18  1   
 19  16  22  1   
 20  18  19  1   
 21  18  20  1   
 22  18  21  1   
 23  22  23  1   
 24  22  24  1   
@<TRIPOS>SUBSTRUCTURE
  1 ****   3 GROUP 4 **** **** 0
