@<TRIPOS>MOLECULE
CHEM102
19 19 1 0 0 
SMALL
USER_CHARGES


@<TRIPOS>ATOM
  1 H       -1.1330    -1.0780     0.8560 H.spc     1 <1>   0.1500 
  2 C       -0.6530    -0.1600     0.5430 C.2   1 <1>  -0.1500 
  3 C       -1.2920     0.9360    -0.0110 C.2   1 <1>   0.0550 
  4 C       -2.6760     1.2050    -0.3280 C.2   1 <1>   0.8050 
  5 O       -3.1170     2.2380    -0.8180 O.2   1 <1>  -0.5700 
  6 O       -3.4420     0.1240     0.0070 O.3   1 <1>  -0.4300 
  7 C       -4.8330     0.2930    -0.2640 C.3   1 <1>   0.2800 
  8 H       -5.2410     1.1180     0.3290 H.spc     1 <1>   0.0000 
  9 H       -5.3490    -0.6280     0.0240 H.spc     1 <1>   0.0000 
 10 H       -5.0000     0.4620    -1.3330 H.spc     1 <1>   0.0000 
 11 O       -0.3610     1.9060    -0.2780 O.3   1 <1>  -0.2800 
 12 C        0.8590     1.4290     0.0990 C.2   1 <1>  -0.0400 
 13 C        2.0120     2.3450    -0.0970 C.3   1 <1>   0.3800 
 14 H        1.6740     3.2940    -0.5310 H.spc     1 <1>   0.0000 
 15 H        2.4530     2.5800     0.8780 H.spc     1 <1>   0.0000 
 16 C        3.0240     1.7370    -0.9700 C.1   1 <1>   0.3570 
 17 N        3.8420     1.2620    -1.6440 N.1   1 <1>  -0.5570 
 18 C        0.7250     0.1580     0.6190 C.2   1 <1>  -0.1500 
 19 H        1.5210    -0.4660     1.0010 H.spc     1 <1>   0.1500 
@<TRIPOS>BOND
  1   1   2  1   
  2   2   3  2   
  3   2  18  1   
  4   3   4  1   
  5   3  11  1   
  6   4   5  2   
  7   4   6  1   
  8   6   7  1   
  9   7   8  1   
 10   7   9  1   
 11   7  10  1   
 12  11  12  1   
 13  12  13  1   
 14  12  18  2   
 15  13  14  1   
 16  13  15  1   
 17  13  16  1   
 18  16  17  3   
 19  18  19  1   
@<TRIPOS>SUBSTRUCTURE
  1 ****  11 GROUP 4 **** **** 0
