@<TRIPOS>MOLECULE
CHEM011
33 35 1 0 0 
SMALL
USER_CHARGES


@<TRIPOS>ATOM
  1 H       -0.5150     1.1850     0.9460 H.spc      1 <1>   0.5000 
  2 O        0.0680     1.9480     0.7500 O.3   1 <1>  -0.6500 
  3 C        1.3040     1.4170     0.7860 C.2   1 <1>   0.6340 
  4 O        1.4700     0.2370     1.0280 O.2   1 <1>  -0.5700 
  5 C        2.3650     2.4170     0.5080 C.ar  1 <1>   0.0860 
  6 C        2.0540     3.7700     0.2630 C.ar  1 <1>  -0.1500 
  7 H        1.0200     4.1080     0.2690 H.spc      1 <1>   0.1500 
  8 C        3.0660     4.6960     0.0040 C.ar  1 <1>  -0.1500 
  9 H        2.8250     5.7360    -0.1950 H.spc      1 <1>   0.1500 
 10 C        4.3790     4.2500     0.0010 C.ar  1 <1>  -0.1440 
 11 C        4.6940     2.9110     0.2430 C.ar  1 <1>   0.1170 
 12 C        3.6990     1.9820     0.4960 C.ar  1 <1>  -0.1500 
 13 H        3.9320     0.9390     0.6870 H.spc      1 <1>   0.1500 
 14 N        6.0890     2.7270     0.1880 N.am  1 <1>  -0.4770 
 15 C        6.7420     1.5110     0.3010 C.2   1 <1>   0.5440 
 16 O        6.2180     0.4050     0.3830 O.2   1 <1>  -0.5700 
 17 C        8.2190     1.5410     0.2940 C.ar  1 <1>   0.0860 
 18 C        8.9200     2.0460     1.3960 C.ar  1 <1>  -0.1500 
 19 H        8.3850     2.4180     2.2660 H.spc      1 <1>   0.1500 
 20 C       10.3150     2.0500     1.3770 C.ar  1 <1>  -0.1500 
 21 H       10.8820     2.4350     2.2190 H.spc      1 <1>   0.1500 
 22 C       10.9890     1.5410     0.2680 C.ar  1 <1>   0.1900 
 23 F       12.3280     1.5470     0.2540 F     1 <1>  -0.1900 
 24 C       10.2960     1.0200    -0.8210 C.ar  1 <1>  -0.1500 
 25 H       10.8460     0.6170    -1.6660 H.spc      1 <1>   0.1500 
 26 C        8.9010     1.0120    -0.8090 C.ar  1 <1>  -0.1500 
 27 H        8.3470     0.5920    -1.6450 H.spc      1 <1>   0.1500 
 28 C        6.7220     4.0440    -0.0180 C.3   1 <1>   0.3000 
 29 H        7.2650     4.3120     0.8950 H.spc      1 <1>   0.0000 
 30 H        7.4410     3.9930    -0.8430 H.spc      1 <1>   0.0000 
 31 C        5.6030     5.0550    -0.2950 C.3   1 <1>   0.1440 
 32 H        5.6880     5.9320     0.3520 H.spc      1 <1>   0.0000 
 33 H        5.6110     5.3670    -1.3440 H.spc      1 <1>   0.0000 
@<TRIPOS>BOND
  1   1   2  1   
  2   2   3  1   
  3   3   4  2   
  4   3   5  1   
  5   5   6  ar  
  6   5  12  ar  
  7   6   7  1   
  8   6   8  ar  
  9   8   9  1   
 10   8  10  ar  
 11  10  11  ar  
 12  10  31  1   
 13  11  12  ar  
 14  11  14  1   
 15  12  13  1   
 16  14  15  am  
 17  14  28  1   
 18  15  16  2   
 19  15  17  1   
 20  17  18  ar  
 21  17  26  ar  
 22  18  19  1   
 23  18  20  ar  
 24  20  21  1   
 25  20  22  ar  
 26  22  23  1   
 27  22  24  ar  
 28  24  25  1   
 29  24  26  ar  
 30  26  27  1   
 31  28  29  1   
 32  28  30  1   
 33  28  31  1   
 34  31  32  1   
 35  31  33  1   
@<TRIPOS>SUBSTRUCTURE
  1 ****  14 GROUP 4 **** **** 0
