@<TRIPOS>MOLECULE
CHEM052
35 36 1 0 0 
SMALL
USER_CHARGES


@<TRIPOS>ATOM
  1 H        4.4830     6.0690    -0.0150 H.spc     1 <1>   0.1500 
  2 C        3.4240     5.8310    -0.0820 C.ar  1 <1>  -0.1500 
  3 C        2.8040     5.1190     0.9430 C.ar  1 <1>  -0.1500 
  4 H        3.3780     4.8050     1.8110 H.spc     1 <1>   0.1500 
  5 C        1.4440     4.8130     0.8590 C.ar  1 <1>  -0.1500 
  6 H        0.9710     4.2660     1.6710 H.spc     1 <1>   0.1500 
  7 C        0.6950     5.2090    -0.2580 C.ar  1 <1>  -0.1440 
  8 C       -0.7810     4.9020    -0.3410 C.3   1 <1>   0.5130 
  9 H       -1.0510     4.7210    -1.3890 H.spc     1 <1>   0.0000 
 10 H       -0.9940     3.9810     0.2150 H.spc     1 <1>   0.0000 
 11 N       -1.5320     6.0130     0.2000 N.pl3 1 <1>  -0.8690 
 12 H       -1.0020     6.7620     0.6180 H.spc     1 <1>   0.4000 
 13 C       -2.9150     6.1100     0.2060 C.ar  1 <1>   0.1000 
 14 C       -3.7340     5.0430    -0.1950 C.ar  1 <1>  -0.1500 
 15 H       -3.2990     4.1010    -0.5180 H.spc     1 <1>   0.1500 
 16 C       -5.1300     5.1430    -0.1770 C.ar  1 <1>  -0.1500 
 17 H       -5.7200     4.2850    -0.4890 H.spc     1 <1>   0.1500 
 18 C       -5.7410     6.3250     0.2400 C.ar  1 <1>   0.0860 
 19 C       -7.2190     6.4930     0.2840 C.2   1 <1>   0.6340 
 20 O       -7.7720     7.5170     0.6520 O.2   1 <1>  -0.5700 
 21 O       -7.8420     5.3630    -0.1370 O.3   1 <1>  -0.4300 
 22 C       -9.2680     5.4490    -0.1230 C.3   1 <1>   0.2800 
 23 H       -9.6320     5.6260     0.8940 H.spc     1 <1>   0.0000 
 24 H       -9.6100     6.2370    -0.8010 H.spc     1 <1>   0.0000 
 25 H       -9.6670     4.4930    -0.4720 H.spc     1 <1>   0.0000 
 26 C       -4.9420     7.4060     0.6290 C.ar  1 <1>  -0.1500 
 27 H       -5.4150     8.3340     0.9430 H.spc     1 <1>   0.1500 
 28 C       -3.5420     7.3180     0.6060 C.ar  1 <1>   0.1000 
 29 N       -2.8040     8.4420     0.9690 N.pl3 1 <1>  -0.9000 
 30 H       -1.8030     8.4610     0.8630 H.spc     1 <1>   0.4000 
 31 H       -3.2670     9.2610     1.3360 H.spc     1 <1>   0.4000 
 32 C        1.3270     5.9380    -1.2770 C.ar  1 <1>  -0.1500 
 33 H        0.7590     6.2740    -2.1420 H.spc     1 <1>   0.1500 
 34 C        2.6860     6.2430    -1.1900 C.ar  1 <1>  -0.1500 
 35 H        3.1680     6.8040    -1.9860 H.spc     1 <1>   0.1500 
@<TRIPOS>BOND
  1   1   2  1   
  2   2   3  ar  
  3   2  34  ar  
  4   3   4  1   
  5   3   5  ar  
  6   5   6  1   
  7   5   7  ar  
  8   7   8  1   
  9   7  32  ar  
 10   8   9  1   
 11   8  10  1   
 12   8  11  1   
 13  11  12  1   
 14  11  13  1   
 15  13  14  ar  
 16  13  28  ar  
 17  14  15  1   
 18  14  16  ar  
 19  16  17  1   
 20  16  18  ar  
 21  18  19  1   
 22  18  26  ar  
 23  19  20  2   
 24  19  21  1   
 25  21  22  1   
 26  22  23  1   
 27  22  24  1   
 28  22  25  1   
 29  26  27  1   
 30  26  28  ar  
 31  28  29  1   
 32  29  30  1   
 33  29  31  1   
 34  32  33  1   
 35  32  34  ar  
 36  34  35  1   
@<TRIPOS>SUBSTRUCTURE
  1 ****  13 GROUP 4 **** **** 0
