@<TRIPOS>MOLECULE
CHEM161
37 38 1 0 0 
SMALL
USER_CHARGES


@<TRIPOS>ATOM
  1 H       -0.5480    -4.4110     0.3010 H.spc     1 <1>   0.4000 
  2 N        0.4570    -4.6130     0.3950 N.2   1 <1>  -0.8500 
  3 C        1.1340    -3.6320    -0.0970 C.2   1 <1>   0.5300 
  4 S        0.2620    -2.2600    -0.7130 S.3   1 <1>  -0.2820 
  5 C        1.0970    -1.1130     0.2930 C.2   1 <1>   0.5300 
  6 N        0.3960    -0.3480     1.0560 N.2   1 <1>  -0.8500 
  7 H       -0.6030    -0.5400     0.9020 H.spc     1 <1>   0.4000 
  8 C        2.6080    -1.0650     0.2780 C.3   1 <1>   0.2610 
  9 H        2.9260    -1.0570     1.3290 H.spc     1 <1>   0.0000 
 10 C        3.0040     0.2120    -0.3490 C.1   1 <1>   0.3570 
 11 N        3.3220     1.1920    -0.8820 N.1   1 <1>  -0.5570 
 12 C        3.2620    -2.2530    -0.4740 C.3   1 <1>   0.1440 
 13 H        3.0970    -2.0900    -1.5520 H.spc     1 <1>   0.0000 
 14 C        4.7750    -2.2610    -0.2460 C.ar  1 <1>  -0.1440 
 15 C        5.6390    -2.0440    -1.3290 C.ar  1 <1>  -0.1500 
 16 H        5.2500    -1.8730    -2.3320 H.spc     1 <1>   0.1500 
 17 C        7.0240    -2.0350    -1.1470 C.ar  1 <1>  -0.1500 
 18 H        7.6630    -1.8580    -2.0100 H.spc     1 <1>   0.1500 
 19 C        7.5840    -2.2470     0.1190 C.ar  1 <1>  -0.1440 
 20 C        9.0860    -2.2350     0.3400 C.3   1 <1>   0.1440 
 21 H        9.2850    -2.4650     1.3950 H.spc     1 <1>   0.0000 
 22 C        9.6800    -0.8530     0.0590 C.3   1 <1>   0.0000 
 23 H       10.7490    -0.8370     0.2970 H.spc     1 <1>   0.0000 
 24 H        9.1890    -0.0850     0.6680 H.spc     1 <1>   0.0000 
 25 H        9.5690    -0.5660    -0.9920 H.spc     1 <1>   0.0000 
 26 C        9.7920    -3.3110    -0.4900 C.3   1 <1>   0.0000 
 27 H        9.7010    -3.1240    -1.5660 H.spc     1 <1>   0.0000 
 28 H        9.3710    -4.3010    -0.2860 H.spc     1 <1>   0.0000 
 29 H       10.8600    -3.3440    -0.2490 H.spc     1 <1>   0.0000 
 30 C        6.7210    -2.4630     1.2000 C.ar  1 <1>  -0.1500 
 31 H        7.1250    -2.6280     2.1980 H.spc     1 <1>   0.1500 
 32 C        5.3340    -2.4700     1.0230 C.ar  1 <1>  -0.1500 
 33 H        4.7120    -2.6400     1.8980 H.spc     1 <1>   0.1500 
 34 C        2.6460    -3.6310    -0.1180 C.3   1 <1>   0.2610 
 35 H        2.9660    -3.9470     0.8830 H.spc     1 <1>   0.0000 
 36 C        3.0770    -4.6470    -1.0990 C.1   1 <1>   0.3570 
 37 N        3.4210    -5.4110    -1.9010 N.1   1 <1>  -0.5570 
@<TRIPOS>BOND
  1   1   2  1   
  2   2   3  2   
  3   3   4  1   
  4   3  34  1   
  5   4   5  1   
  6   5   6  2   
  7   5   8  1   
  8   6   7  1   
  9   8   9  1   
 10   8  10  1   
 11   8  12  1   
 12  10  11  3   
 13  12  13  1   
 14  12  14  1   
 15  12  34  1   
 16  14  15  ar  
 17  14  32  ar  
 18  15  16  1   
 19  15  17  ar  
 20  17  18  1   
 21  17  19  ar  
 22  19  20  1   
 23  19  30  ar  
 24  20  21  1   
 25  20  22  1   
 26  20  26  1   
 27  22  23  1   
 28  22  24  1   
 29  22  25  1   
 30  26  27  1   
 31  26  28  1   
 32  26  29  1   
 33  30  31  1   
 34  30  32  ar  
 35  32  33  1   
 36  34  35  1   
 37  34  36  1   
 38  36  37  3   
@<TRIPOS>SUBSTRUCTURE
  1 ****  14 GROUP 4 **** **** 0
