@<TRIPOS>MOLECULE
CHEM157
17 17 1 0 0 
SMALL
USER_CHARGES


@<TRIPOS>ATOM
  1 H        3.9890    -1.0090     0.0000 H.spc     1 <1>   0.0000 
  2 O        2.9630    -0.3870     0.0000 O.3   1 <1>   0.0000 
  3 C        2.9960     1.1130     0.0000 C.2   1 <1>   0.0000 
  4 O        4.3110     1.8350     0.0000 O.2   1 <1>   0.0000 
  5 C        1.7140     1.8910     0.0000 C.3   1 <1>   0.0000 
  6 P        0.6300     0.8540     0.0000 P.3   1 <1>   1.0000 
  7 H       -0.5700     0.8540     0.0000 H.spc     1 <1>   0.0000 
  8 O       -0.4530    -0.1830     0.0000 O.2   1 <1>   0.0000 
  9 O        1.6670    -0.2300     0.0000 O.3   1 <1>  -1.0000 
 10 O       -0.4070     1.9380     0.0000 O.3   1 <1>   0.0000 
 11 H       -1.5730     1.6520     0.0000 H.spc     1 <1>   0.0000 
 12 C        0.9360     3.1740     0.0000 C.3   1 <1>   0.0000 
 13 H        0.7010     4.3510     0.0000 H.spc     1 <1>   0.0000 
 14 H       -0.1830     2.7390     0.0000 H.spc     1 <1>   0.0000 
 15 C        2.4350     3.2060     0.0000 C.3   1 <1>   0.0000 
 16 H        3.5720     2.8210     0.0000 H.spc     1 <1>   0.0000 
 17 H        2.6180     4.3920     0.0000 H.spc     1 <1>   0.0000 
@<TRIPOS>BOND
  1   1   2  1   
  2   2   3  1   
  3   3   4  2   
  4   3   5  1   
  5   5   6  1   
  6   5  12  1   
  7   5  15  1   
  8   6   7  1   
  9   6   8  2   
 10   6   9  1   
 11   6  10  1   
 12  10  11  1   
 13  12  13  1   
 14  12  14  1   
 15  12  15  1   
 16  15  16  1   
 17  15  17  1   
@<TRIPOS>SUBSTRUCTURE
  1 ****   5 GROUP 4 **** **** 0
