@<TRIPOS>MOLECULE
CHEM083
48 51 1 0 0 
SMALL
USER_CHARGES


@<TRIPOS>ATOM
  1 H       -0.3010    -0.4020    -1.7890 H.spc     1 <1>   0.3600 
  2 N        0.0240    -1.0520    -1.0790 N.3   1 <1>  -0.9000 
  3 C       -1.0890    -1.5050    -0.2270 C.3   1 <1>   0.2700 
  4 H       -0.6670    -2.1820     0.5250 H.spc     1 <1>   0.0000 
  5 C       -1.8410    -0.3740     0.5160 C.3   1 <1>   0.0000 
  6 H       -2.1780    -0.7800     1.4810 H.spc     1 <1>   0.0000 
  7 H       -1.1740     0.4540     0.7750 H.spc     1 <1>   0.0000 
  8 C       -3.0750     0.1770    -0.2220 C.3   1 <1>   0.2700 
  9 H       -3.5590     0.9260     0.4160 H.spc     1 <1>   0.0000 
 10 N       -3.9440    -0.9800    -0.4950 N.3   1 <1>  -0.8100 
 11 C       -5.3250    -0.5980    -0.7840 C.3   1 <1>   0.2700 
 12 H       -5.4300     0.0910    -1.6280 H.spc     1 <1>   0.0000 
 13 H       -5.7740    -0.1240     0.0960 H.spc     1 <1>   0.0000 
 14 H       -5.9230    -1.4900    -0.9990 H.spc     1 <1>   0.0000 
 15 C       -3.2720    -1.6120    -1.6450 C.3   1 <1>   0.2700 
 16 H       -3.9170    -2.3280    -2.1680 H.spc     1 <1>   0.0000 
 17 C       -2.8780    -0.4430    -2.5510 C.3   1 <1>   0.0000 
 18 H       -3.6750    -0.2350    -3.2760 H.spc     1 <1>   0.0000 
 19 H       -1.9670    -0.6340    -3.1260 H.spc     1 <1>   0.0000 
 20 C       -2.7380     0.7470    -1.6020 C.3   1 <1>   0.0000 
 21 H       -3.4610     1.5210    -1.8850 H.spc     1 <1>   0.0000 
 22 H       -1.7450     1.2040    -1.6450 H.spc     1 <1>   0.0000 
 23 C       -2.0590    -2.3680    -1.0740 C.3   1 <1>   0.0000 
 24 H       -1.5200    -2.8730    -1.8870 H.spc     1 <1>   0.0000 
 25 H       -2.4350    -3.1770    -0.4310 H.spc     1 <1>   0.0000 
 26 C        1.1910    -0.4810    -0.3880 C.3   1 <1>   0.2700 
 27 H        0.8580     0.4090     0.1570 H.spc     1 <1>   0.0000 
 28 C        2.2120     0.0050    -1.4420 C.3   1 <1>   0.0000 
 29 H        2.3620    -0.7710    -2.2060 H.spc     1 <1>   0.0000 
 30 H        1.8090     0.8830    -1.9630 H.spc     1 <1>   0.0000 
 31 C        3.5790     0.3590    -0.8200 C.3   1 <1>   0.2700 
 32 H        4.2440     0.7270    -1.6100 H.spc     1 <1>   0.0000 
 33 N        4.0770    -0.8730    -0.1830 N.3   1 <1>  -0.8100 
 34 C        5.5130    -0.8370     0.0840 C.3   1 <1>   0.2700 
 35 H        5.8280    -1.7680     0.5670 H.spc     1 <1>   0.0000 
 36 H        5.8260    -0.0040     0.7210 H.spc     1 <1>   0.0000 
 37 H        6.0680    -0.7690    -0.8590 H.spc     1 <1>   0.0000 
 38 C        3.2660    -0.9520     1.0440 C.3   1 <1>   0.2700 
 39 H        3.6760    -1.6550     1.7790 H.spc     1 <1>   0.0000 
 40 C        3.2390     0.4850     1.5760 C.3   1 <1>   0.0000 
 41 H        4.0610     0.6520     2.2820 H.spc     1 <1>   0.0000 
 42 H        2.3070     0.7290     2.0950 H.spc     1 <1>   0.0000 
 43 C        3.4480     1.3580     0.3350 C.3   1 <1>   0.0000 
 44 H        4.3700     1.9400     0.4490 H.spc     1 <1>   0.0000 
 45 H        2.6280     2.0680     0.1910 H.spc     1 <1>   0.0000 
 46 C        1.8640    -1.4380     0.6180 C.3   1 <1>   0.0000 
 47 H        1.9530    -2.4410     0.1780 H.spc     1 <1>   0.0000 
 48 H        1.2380    -1.5380     1.5130 H.spc     1 <1>   0.0000 
@<TRIPOS>BOND
  1   1   2  1   
  2   2   3  1   
  3   2  26  1   
  4   3   4  1   
  5   3   5  1   
  6   3  23  1   
  7   5   6  1   
  8   5   7  1   
  9   5   8  1   
 10   8   9  1   
 11   8  10  1   
 12   8  20  1   
 13  10  11  1   
 14  10  15  1   
 15  11  12  1   
 16  11  13  1   
 17  11  14  1   
 18  15  16  1   
 19  15  17  1   
 20  15  23  1   
 21  17  18  1   
 22  17  19  1   
 23  17  20  1   
 24  20  21  1   
 25  20  22  1   
 26  23  24  1   
 27  23  25  1   
 28  26  27  1   
 29  26  28  1   
 30  26  46  1   
 31  28  29  1   
 32  28  30  1   
 33  28  31  1   
 34  31  32  1   
 35  31  33  1   
 36  31  43  1   
 37  33  34  1   
 38  33  38  1   
 39  34  35  1   
 40  34  36  1   
 41  34  37  1   
 42  38  39  1   
 43  38  40  1   
 44  38  46  1   
 45  40  41  1   
 46  40  42  1   
 47  40  43  1   
 48  43  44  1   
 49  43  45  1   
 50  46  47  1   
 51  46  48  1   
@<TRIPOS>SUBSTRUCTURE
  1 ****   2 GROUP 4 **** **** 0
