@<TRIPOS>MOLECULE
CHEM071
40 43 1 0 0 
SMALL
USER_CHARGES


@<TRIPOS>ATOM
  1 H        8.7130     2.9830    -1.7380 H.spc     1 <1>   0.0000 
  2 C        8.2160     2.0610    -1.4120 C.3   1 <1>   0.0000 
  3 H        8.7000     1.2250    -1.9300 H.spc     1 <1>   0.0000 
  4 H        7.1800     2.1070    -1.7600 H.spc     1 <1>   0.0000 
  5 C        8.3160     1.8930     0.1200 C.3   1 <1>   0.0000 
  6 C        9.8090     1.8460     0.4950 C.3   1 <1>   0.0000 
  7 H       10.3140     1.0070     0.0040 H.spc     1 <1>   0.0000 
  8 H        9.9440     1.7280     1.5760 H.spc     1 <1>   0.0000 
  9 H       10.3210     2.7680     0.1960 H.spc     1 <1>   0.0000 
 10 C        7.6520     3.0950     0.8430 C.3   1 <1>   0.1440 
 11 H        8.0120     4.0400     0.4160 H.spc     1 <1>   0.0000 
 12 H        7.9330     3.0930     1.9040 H.spc     1 <1>   0.0000 
 13 C        6.1480     3.0560     0.7830 C.ar  1 <1>   0.1660 
 14 N        5.4760     4.2200     0.9150 N.ar  1 <1>  -0.3100 
 15 N        4.1050     4.2260     0.8910 N.ar  1 <1>  -0.3100 
 16 C        3.4280     3.0690     0.7330 C.ar  1 <1>   0.1660 
 17 C        4.0880     1.8510     0.6100 C.ar  1 <1>   0.0000 
 18 C        3.4210     0.6420     0.4490 C.ar  1 <1>   0.1660 
 19 N        4.0920    -0.5250     0.3400 N.ar  1 <1>  -0.3100 
 20 N        5.4630    -0.5320     0.3710 N.ar  1 <1>  -0.3100 
 21 C        6.1410     0.6280     0.5080 C.ar  1 <1>   0.1660 
 22 C        5.4800     1.8440     0.6380 C.ar  1 <1>   0.0000 
 23 C        7.6440     0.5670     0.5650 C.3   1 <1>   0.1440 
 24 H        8.0020    -0.2650    -0.0530 H.spc     1 <1>   0.0000 
 25 H        7.9200     0.3400     1.6030 H.spc     1 <1>   0.0000 
 26 C        1.9160     0.5980     0.4350 C.3   1 <1>   0.1440 
 27 H        1.5790    -0.2240    -0.2090 H.spc     1 <1>   0.0000 
 28 H        1.5900     0.3610     1.4560 H.spc     1 <1>   0.0000 
 29 C        1.2780     1.9350    -0.0250 C.3   1 <1>   0.0000 
 30 C        1.4470     2.1190    -1.5490 C.3   1 <1>   0.0000 
 31 H        0.9810     3.0530    -1.8840 H.spc     1 <1>   0.0000 
 32 H        2.4980     2.1510    -1.8520 H.spc     1 <1>   0.0000 
 33 H        0.9720     1.2980    -2.0980 H.spc     1 <1>   0.0000 
 34 C       -0.2300     1.9020     0.2840 C.3   1 <1>   0.0000 
 35 H       -0.7180     2.8330    -0.0260 H.spc     1 <1>   0.0000 
 36 H       -0.4130     1.7720     1.3570 H.spc     1 <1>   0.0000 
 37 H       -0.7220     1.0740    -0.2390 H.spc     1 <1>   0.0000 
 38 C        1.9230     3.1210     0.7390 C.3   1 <1>   0.1440 
 39 H        1.5860     4.0750     0.3140 H.spc     1 <1>   0.0000 
 40 H        1.6030     3.1060     1.7890 H.spc     1 <1>   0.0000 
@<TRIPOS>BOND
  1   1   2  1   
  2   2   3  1   
  3   2   4  1   
  4   2   5  1   
  5   5   6  1   
  6   5  10  1   
  7   5  23  1   
  8   6   7  1   
  9   6   8  1   
 10   6   9  1   
 11  10  11  1   
 12  10  12  1   
 13  10  13  1   
 14  13  14  ar  
 15  13  22  ar  
 16  14  15  ar  
 17  15  16  ar  
 18  16  17  ar  
 19  16  38  1   
 20  17  18  ar  
 21  17  22  ar  
 22  18  19  ar  
 23  18  26  1   
 24  19  20  ar  
 25  20  21  ar  
 26  21  22  ar  
 27  21  23  1   
 28  23  24  1   
 29  23  25  1   
 30  26  27  1   
 31  26  28  1   
 32  26  29  1   
 33  29  30  1   
 34  29  34  1   
 35  29  38  1   
 36  30  31  1   
 37  30  32  1   
 38  30  33  1   
 39  34  35  1   
 40  34  36  1   
 41  34  37  1   
 42  38  39  1   
 43  38  40  1   
@<TRIPOS>SUBSTRUCTURE
  1 ****  22 GROUP 4 **** **** 0
