@<TRIPOS>MOLECULE
CHEM150
22 22 1 0 0 
SMALL
USER_CHARGES


@<TRIPOS>ATOM
  1 H        8.1780     0.3410     1.0010 H.spc     1 <1>   0.4000 
  2 O        7.2130     0.4330     0.9380 O.3   1 <1>  -0.6800 
  3 C        6.9480     1.4990     0.0300 C.3   1 <1>   0.4180 
  4 H        7.3620     1.2130    -0.9440 H.spc     1 <1>   0.0000 
  5 C        5.4540     1.5770    -0.1000 C.2   1 <1>  -0.2880 
  6 H        4.9990     0.6370    -0.4080 H.spc     1 <1>   0.1500 
  7 C        4.6720     2.6500     0.1090 C.2   1 <1>  -0.1780 
  8 H        5.1010     3.6060     0.3960 H.spc     1 <1>   0.1500 
  9 C        3.2090     2.6350    -0.0350 C.ar  1 <1>   0.0280 
 10 C        2.4310     1.5500     0.3730 C.ar  1 <1>  -0.1500 
 11 H        2.8760     0.6600     0.8050 H.spc     1 <1>   0.1500 
 12 C        1.0540     1.6300     0.2320 C.ar  1 <1>   0.1600 
 13 H        0.4140     0.8070     0.5360 H.spc     1 <1>   0.1500 
 14 N        0.4110     2.7040    -0.2720 N.ar  1 <1>  -0.6200 
 15 C        1.1810     3.7480    -0.6440 C.ar  1 <1>   0.1600 
 16 H        0.6400     4.6030    -1.0400 H.spc     1 <1>   0.1500 
 17 C        2.5630     3.7640    -0.5410 C.ar  1 <1>  -0.1500 
 18 H        3.1170     4.6400    -0.8590 H.spc     1 <1>   0.1500 
 19 C        7.6580     2.7550     0.5220 C.3   1 <1>   0.0000 
 20 H        8.7360     2.5770     0.6000 H.spc     1 <1>   0.0000 
 21 H        7.5010     3.6000    -0.1560 H.spc     1 <1>   0.0000 
 22 H        7.3190     3.0360     1.5260 H.spc     1 <1>   0.0000 
@<TRIPOS>BOND
  1   1   2  1   
  2   2   3  1   
  3   3   4  1   
  4   3   5  1   
  5   3  19  1   
  6   5   6  1   
  7   5   7  2   
  8   7   8  1   
  9   7   9  1   
 10   9  10  ar  
 11   9  17  ar  
 12  10  11  1   
 13  10  12  ar  
 14  12  13  1   
 15  12  14  ar  
 16  14  15  ar  
 17  15  16  1   
 18  15  17  ar  
 19  17  18  1   
 20  19  20  1   
 21  19  21  1   
 22  19  22  1   
@<TRIPOS>SUBSTRUCTURE
  1 ****   9 GROUP 4 **** **** 0
