@<TRIPOS>MOLECULE
CHEM100
26 26 1 0 0 
SMALL
USER_CHARGES


@<TRIPOS>ATOM
  1 H       -0.6030    -1.6940    -0.7730 H.spc     1 <1>   0.1500 
  2 C       -1.4670    -1.1700    -0.3700 C.2   1 <1>  -0.1500 
  3 C       -1.4020     0.2850    -0.2750 C.2   1 <1>  -0.1380 
  4 C       -0.1310     0.9150    -0.7920 C.3   1 <1>   0.4180 
  5 H       -0.1630     2.0090    -0.7670 H.spc     1 <1>   0.0000 
  6 H        0.0350     0.6100    -1.8330 H.spc     1 <1>   0.0000 
  7 O        0.9520     0.4610     0.0200 O.3   1 <1>  -0.5600 
  8 C        2.1980     1.0080    -0.4050 C.3   1 <1>   0.2800 
  9 H        2.3980     0.7120    -1.4400 H.spc     1 <1>   0.0000 
 10 H        2.1620     2.1020    -0.3440 H.spc     1 <1>   0.0000 
 11 C        3.2890     0.4770     0.5030 C.3   1 <1>   0.0000 
 12 H        3.3230    -0.6170     0.4650 H.spc     1 <1>   0.0000 
 13 H        4.2660     0.8710     0.2100 H.spc     1 <1>   0.0000 
 14 H        3.0920     0.7540     1.5440 H.spc     1 <1>   0.0000 
 15 C       -2.4450     0.9710     0.2440 C.2   1 <1>   0.0790 
 16 C       -2.4580     2.3860     0.3690 C.1   1 <1>   0.4920 
 17 N       -2.4120     3.5440     0.4310 N.1   1 <1>  -0.5570 
 18 C       -3.6490     0.2190     0.7080 C.2   1 <1>   0.6160 
 19 O       -4.6340     0.7760     1.1820 O.2   1 <1>  -0.5700 
 20 N       -3.6080    -1.1490     0.5710 N.am  1 <1>  -0.5390 
 21 H       -4.4320    -1.6430     0.8920 H.spc     1 <1>   0.3700 
 22 C       -2.5470    -1.8460     0.0480 C.2   1 <1>  -0.0290 
 23 C       -2.6700    -3.3370    -0.0110 C.3   1 <1>   0.1380 
 24 H       -2.8070    -3.7500     0.9940 H.spc     1 <1>   0.0000 
 25 H       -3.5300    -3.6250    -0.6240 H.spc     1 <1>   0.0000 
 26 H       -1.7790    -3.8030    -0.4460 H.spc     1 <1>   0.0000 
@<TRIPOS>BOND
  1   1   2  1   
  2   2   3  1   
  3   2  22  2   
  4   3   4  1   
  5   3  15  2   
  6   4   5  1   
  7   4   6  1   
  8   4   7  1   
  9   7   8  1   
 10   8   9  1   
 11   8  10  1   
 12   8  11  1   
 13  11  12  1   
 14  11  13  1   
 15  11  14  1   
 16  15  16  1   
 17  15  18  1   
 18  16  17  3   
 19  18  19  2   
 20  18  20  am  
 21  20  21  1   
 22  20  22  1   
 23  22  23  1   
 24  23  24  1   
 25  23  25  1   
 26  23  26  1   
@<TRIPOS>SUBSTRUCTURE
  1 ****   3 GROUP 4 **** **** 0
