@<TRIPOS>MOLECULE
CHEM134
23 24 1 0 0 
SMALL
USER_CHARGES


@<TRIPOS>ATOM
  1 H        1.4050     1.1830     0.6680 H.spc     1 <1>   0.1500 
  2 C        0.5080     1.7320     0.4140 C.2   1 <1>  -0.1100 
  3 S       -1.0290     1.0290     0.6690 S.3   1 <1>  -0.0800 
  4 C       -1.8420     2.4130     0.0660 C.2   1 <1>  -0.0450 
  5 C       -3.2790     2.4420     0.0130 C.2   1 <1>   0.6850 
  6 N       -4.0940     1.5050     0.3850 N.2   1 <1>  -0.6960 
  7 C       -5.4210     2.0360     0.0210 C.3   1 <1>   0.2460 
  8 C       -6.3980     1.7920     1.1660 C.3   1 <1>   0.0000 
  9 H       -7.3850     2.2100     0.9410 H.spc     1 <1>   0.0000 
 10 H       -6.0400     2.2490     2.0960 H.spc     1 <1>   0.0000 
 11 H       -6.5180     0.7200     1.3610 H.spc     1 <1>   0.0000 
 12 C       -5.8910     1.3200    -1.2480 C.3   1 <1>   0.0000 
 13 H       -6.8720     1.6880    -1.5680 H.spc     1 <1>   0.0000 
 14 H       -5.9710     0.2390    -1.0840 H.spc     1 <1>   0.0000 
 15 H       -5.1890     1.4700    -2.0760 H.spc     1 <1>   0.0000 
 16 C       -5.1780     3.5200    -0.2210 C.3   1 <1>   0.2800 
 17 H       -5.3930     4.1400     0.6570 H.spc     1 <1>   0.0000 
 18 H       -5.7420     3.9150    -1.0710 H.spc     1 <1>   0.0000 
 19 O       -3.7840     3.6040    -0.4880 O.3   1 <1>  -0.4300 
 20 C       -0.9400     3.3900    -0.3200 C.2   1 <1>  -0.1500 
 21 H       -1.2420     4.3470    -0.7310 H.spc     1 <1>   0.1500 
 22 C        0.4150     2.9970    -0.1190 C.2   1 <1>  -0.1500 
 23 H        1.2750     3.6110    -0.3550 H.spc     1 <1>   0.1500 
@<TRIPOS>BOND
  1   1   2  1   
  2   2   3  1   
  3   2  22  2   
  4   3   4  1   
  5   4   5  1   
  6   4  20  2   
  7   5   6  2   
  8   5  19  1   
  9   6   7  1   
 10   7   8  1   
 11   7  12  1   
 12   7  16  1   
 13   8   9  1   
 14   8  10  1   
 15   8  11  1   
 16  12  13  1   
 17  12  14  1   
 18  12  15  1   
 19  16  17  1   
 20  16  18  1   
 21  16  19  1   
 22  20  21  1   
 23  20  22  1   
 24  22  23  1   
@<TRIPOS>SUBSTRUCTURE
  1 ****   5 GROUP 4 **** **** 0
