@<TRIPOS>MOLECULE
CHEM136
21 21 1 0 0 
SMALL
USER_CHARGES


@<TRIPOS>ATOM
  1 H        7.5820    -3.0880     0.0870 H.spc     1 <1>   0.4000 
  2 O        7.2350    -2.1810     0.1480 O.3   1 <1>  -0.6800 
  3 C        5.8090    -2.2870     0.2000 C.3   1 <1>   0.2800 
  4 H        5.5430    -2.9470     1.0340 H.spc     1 <1>   0.0000 
  5 H        5.4760    -2.7550    -0.7320 H.spc     1 <1>   0.0000 
  6 C        5.1810    -0.8870     0.3990 C.3   1 <1>   0.4140 
  7 H        5.5760    -0.4930     1.3440 H.spc     1 <1>   0.0000 
  8 C        3.6680    -0.9330     0.4730 C.ar  1 <1>  -0.1440 
  9 C        2.8890    -1.4770    -0.5620 C.ar  1 <1>  -0.1500 
 10 H        3.3600    -1.8690    -1.4600 H.spc     1 <1>   0.1500 
 11 C        1.4960    -1.5120    -0.4650 C.ar  1 <1>  -0.1500 
 12 H        0.9060    -1.9340    -1.2750 H.spc     1 <1>   0.1500 
 13 C        0.8610    -1.0000     0.6630 C.ar  1 <1>  -0.1500 
 14 H       -0.2220    -1.0240     0.7360 H.spc     1 <1>   0.1500 
 15 C        1.6170    -0.4470     1.6940 C.ar  1 <1>  -0.1500 
 16 H        1.1230    -0.0380     2.5710 H.spc     1 <1>   0.1500 
 17 C        3.0100    -0.4110     1.5990 C.ar  1 <1>  -0.1500 
 18 H        3.5820     0.0360     2.4090 H.spc     1 <1>   0.1500 
 19 N        5.6370     0.0510    -0.6420 N.3   1 <1>  -0.9900 
 20 H        6.6570    -0.0390    -0.6750 H.spc     1 <1>   0.3600 
 21 H        5.3160    -0.2790    -1.5490 H.spc     1 <1>   0.3600 
@<TRIPOS>BOND
  1   1   2  1   
  2   2   3  1   
  3   3   4  1   
  4   3   5  1   
  5   3   6  1   
  6   6   7  1   
  7   6   8  1   
  8   6  19  1   
  9   8   9  ar  
 10   8  17  ar  
 11   9  10  1   
 12   9  11  ar  
 13  11  12  1   
 14  11  13  ar  
 15  13  14  1   
 16  13  15  ar  
 17  15  16  1   
 18  15  17  ar  
 19  17  18  1   
 20  19  20  1   
 21  19  21  1   
@<TRIPOS>SUBSTRUCTURE
  1 ****   8 GROUP 4 **** **** 0
