@<TRIPOS>MOLECULE
CHEM146
33 34 1 0 0 
SMALL
USER_CHARGES


@<TRIPOS>ATOM
  1 H       11.6990    -1.6150    -0.8740 H.spc     1 <1>   0.1500 
  2 C       11.0530    -2.2150    -0.2400 C.2   1 <1>  -0.3000 
  3 H       11.3510    -2.3490     0.7960 H.spc     1 <1>   0.1500 
  4 C        9.9350    -2.7660    -0.7310 C.2   1 <1>  -0.2880 
  5 H        9.6840    -2.6120    -1.7780 H.spc     1 <1>   0.1500 
  6 C        8.9860    -3.6200     0.0580 C.3   1 <1>   0.4380 
  7 H        9.3490    -3.8130     1.0740 H.spc     1 <1>   0.0000 
  8 H        8.8900    -4.5890    -0.4400 H.spc     1 <1>   0.0000 
  9 N        7.7040    -2.9360     0.1430 N.am  1 <1>  -0.6600 
 10 C        6.6570    -3.3830    -0.6660 C.2   1 <1>   0.7160 
 11 O        6.7140    -4.4400    -1.2900 O.2   1 <1>  -0.5700 
 12 C        5.4600    -2.5420    -0.7620 C.2   1 <1>  -0.0860 
 13 C        5.4900    -1.2120    -1.1500 C.2   1 <1>  -0.1100 
 14 H        6.3570    -0.6240    -1.4200 H.spc     1 <1>   0.1500 
 15 S        3.9420    -0.4890    -1.1750 S.3   1 <1>  -0.0800 
 16 C        3.2000    -1.9470    -0.7190 C.2   1 <1>  -0.1400 
 17 C        4.1040    -2.9800    -0.5530 C.2   1 <1>  -0.1810 
 18 C        3.6630    -4.3600    -0.1520 C.3   1 <1>   0.1810 
 19 H        3.9250    -4.5140     0.9020 H.spc     1 <1>   0.0000 
 20 H        4.1920    -5.1200    -0.7370 H.spc     1 <1>   0.0000 
 21 C        2.1490    -4.5560    -0.3340 C.3   1 <1>   0.0000 
 22 H        1.9230    -4.7000    -1.3980 H.spc     1 <1>   0.0000 
 23 H        1.8350    -5.4680     0.1860 H.spc     1 <1>   0.0000 
 24 C        1.3530    -3.3520     0.1880 C.3   1 <1>   0.0000 
 25 H        1.5590    -3.2220     1.2580 H.spc     1 <1>   0.0000 
 26 H        0.2780    -3.5430     0.0900 H.spc     1 <1>   0.0000 
 27 C        1.7150    -2.0640    -0.5670 C.3   1 <1>   0.1800 
 28 H        1.3030    -1.2020    -0.0310 H.spc     1 <1>   0.0000 
 29 H        1.2560    -2.0870    -1.5630 H.spc     1 <1>   0.0000 
 30 C        7.6100    -1.8200     1.0790 C.3   1 <1>   0.3000 
 31 H        8.1650    -2.0630     1.9900 H.spc     1 <1>   0.0000 
 32 H        8.0440    -0.9300     0.6150 H.spc     1 <1>   0.0000 
 33 H        6.5750    -1.6170     1.3640 H.spc     1 <1>   0.0000 
@<TRIPOS>BOND
  1   1   2  1   
  2   2   3  1   
  3   2   4  2   
  4   4   5  1   
  5   4   6  1   
  6   6   7  1   
  7   6   8  1   
  8   6   9  1   
  9   9  10  am  
 10   9  30  1   
 11  10  11  2   
 12  10  12  1   
 13  12  13  2   
 14  12  17  1   
 15  13  14  1   
 16  13  15  1   
 17  15  16  1   
 18  16  17  2   
 19  16  27  1   
 20  17  18  1   
 21  18  19  1   
 22  18  20  1   
 23  18  21  1   
 24  21  22  1   
 25  21  23  1   
 26  21  24  1   
 27  24  25  1   
 28  24  26  1   
 29  24  27  1   
 30  27  28  1   
 31  27  29  1   
 32  30  31  1   
 33  30  32  1   
 34  30  33  1   
@<TRIPOS>SUBSTRUCTURE
  1 ****  12 GROUP 4 **** **** 0
