@<TRIPOS>MOLECULE
CHEM084
32 34 1 0 0 
SMALL
USER_CHARGES


@<TRIPOS>ATOM
  1 H        9.2610     4.9290     1.1330 H.spc     1 <1>   0.5000 
  2 O        8.3480     5.1150     0.8320 O.3   1 <1>  -0.6500 
  3 C        7.9070     3.9240     0.3870 C.2   1 <1>   0.7200 
  4 O        8.6040     2.9240     0.4010 O.2   1 <1>  -0.5700 
  5 C        6.5310     3.9620    -0.1390 C.3   1 <1>  -0.1000 
  6 H        6.4970     3.9440    -1.2240 H.spc     1 <1>   0.1000 
  7 C        5.4320     3.2120     0.5910 C.3   1 <1>  -0.1950 
  8 H        5.6940     2.7300     1.5300 H.spc     1 <1>   0.1000 
  9 C        4.4510     2.3810    -0.1810 C.3   1 <1>   0.0950 
 10 H        4.8330     1.3520    -0.1810 H.spc     1 <1>   0.0000 
 11 H        4.4020     2.6920    -1.2310 H.spc     1 <1>   0.0000 
 12 C        3.0640     2.3890     0.4680 C.3   1 <1>   0.0950 
 13 H        2.6760     1.3630     0.4800 H.spc     1 <1>   0.0000 
 14 H        3.1150     2.7120     1.5140 H.spc     1 <1>   0.0000 
 15 C        2.0880     3.2160    -0.3150 C.3   1 <1>  -0.1950 
 16 H        1.8260     2.7250    -1.2490 H.spc     1 <1>   0.1000 
 17 C        0.9940     3.9830     0.4040 C.3   1 <1>  -0.1000 
 18 H        1.0260     3.9770     1.4890 H.spc     1 <1>   0.1000 
 19 C       -0.3820     3.9470    -0.1240 C.2   1 <1>   0.7200 
 20 O       -1.0940     2.9590    -0.1050 O.2   1 <1>  -0.5700 
 21 O       -0.8040     5.1280    -0.6130 O.3   1 <1>  -0.6500 
 22 H       -1.7190     4.9440    -0.9090 H.spc     1 <1>   0.5000 
 23 C        2.0960     4.7270    -0.3250 C.3   1 <1>  -0.1950 
 24 H        1.8430     5.2060    -1.2670 H.spc     1 <1>   0.1000 
 25 C        3.0740     5.5570     0.4500 C.3   1 <1>   0.0950 
 26 H        2.6920     6.5860     0.4500 H.spc     1 <1>   0.0000 
 27 H        3.1220     5.2460     1.5000 H.spc     1 <1>   0.0000 
 28 C        4.4620     5.5510    -0.1980 C.3   1 <1>   0.0950 
 29 H        4.4120     5.2290    -1.2450 H.spc     1 <1>   0.0000 
 30 H        4.8490     6.5770    -0.2080 H.spc     1 <1>   0.0000 
 31 C        5.4360     4.7220     0.5840 C.3   1 <1>  -0.1950 
 32 H        5.6950     5.2110     1.5200 H.spc     1 <1>   0.1000 
@<TRIPOS>BOND
  1   1   2  1   
  2   2   3  1   
  3   3   4  2   
  4   3   5  1   
  5   5   6  1   
  6   5   7  1   
  7   5  31  1   
  8   7   8  1   
  9   7   9  1   
 10   7  31  1   
 11   9  10  1   
 12   9  11  1   
 13   9  12  1   
 14  12  13  1   
 15  12  14  1   
 16  12  15  1   
 17  15  16  1   
 18  15  17  1   
 19  15  23  1   
 20  17  18  1   
 21  17  19  1   
 22  17  23  1   
 23  19  20  2   
 24  19  21  1   
 25  21  22  1   
 26  23  24  1   
 27  23  25  1   
 28  25  26  1   
 29  25  27  1   
 30  25  28  1   
 31  28  29  1   
 32  28  30  1   
 33  28  31  1   
 34  31  32  1   
@<TRIPOS>SUBSTRUCTURE
  1 ****  25 GROUP 4 **** **** 0
