@<TRIPOS>MOLECULE
CHEM028
21 21 1 0 0 
SMALL
USER_CHARGES


@<TRIPOS>ATOM
  1 H        8.1770     0.3970     0.9420 H.spc     1 <1>   0.4000 
  2 N        7.1620     0.4260     1.0360 N.2   1 <1>  -0.8500 
  3 C        6.7220     1.5150     0.5120 C.2   1 <1>   0.5500 
  4 N        7.5280     2.4230    -0.0510 N.pl3 1 <1>  -0.8500 
  5 H        8.5260     2.2790    -0.0870 H.spc     1 <1>   0.4000 
  6 H        7.1760     3.2750    -0.4560 H.spc     1 <1>   0.4000 
  7 N        5.4020     1.7610     0.5270 N.pl3 1 <1>  -0.8190 
  8 H        4.8640     1.0300     0.9790 H.spc     1 <1>   0.4000 
  9 C        4.6770     2.8850     0.0050 C.3   1 <1>   0.5130 
 10 H        4.8930     3.0200    -1.0620 H.spc     1 <1>   0.0000 
 11 H        4.9920     3.8060     0.5110 H.spc     1 <1>   0.0000 
 12 C        3.2000     2.6810     0.1790 C.ar  1 <1>  -0.1440 
 13 C        2.5030     3.3070     1.2070 C.ar  1 <1>   0.1600 
 14 H        3.0040     3.9640     1.9130 H.spc     1 <1>   0.1500 
 15 N        1.1760     3.1610     1.4220 N.ar  1 <1>  -0.6200 
 16 C        0.5110     2.3390     0.5820 C.ar  1 <1>   0.1600 
 17 H       -0.5520     2.2370     0.7800 H.spc     1 <1>   0.1500 
 18 C        1.1110     1.6570    -0.4630 C.ar  1 <1>  -0.1500 
 19 H        0.5300     1.0030    -1.1030 H.spc     1 <1>   0.1500 
 20 C        2.4770     1.8310    -0.6640 C.ar  1 <1>  -0.1500 
 21 H        2.9760     1.3000    -1.4710 H.spc     1 <1>   0.1500 
@<TRIPOS>BOND
  1   1   2  1   
  2   2   3  2   
  3   3   4  1   
  4   3   7  1   
  5   4   5  1   
  6   4   6  1   
  7   7   8  1   
  8   7   9  1   
  9   9  10  1   
 10   9  11  1   
 11   9  12  1   
 12  12  13  ar  
 13  12  20  ar  
 14  13  14  1   
 15  13  15  ar  
 16  15  16  ar  
 17  16  17  1   
 18  16  18  ar  
 19  18  19  1   
 20  18  20  ar  
 21  20  21  1   
@<TRIPOS>SUBSTRUCTURE
  1 ****  12 GROUP 4 **** **** 0
