@<TRIPOS>MOLECULE
CHEM130
43 45 1 0 0 
SMALL
USER_CHARGES


@<TRIPOS>ATOM
  1 H       -1.3080     2.8300    -0.7750 H.spc     1 <1>   0.1500 
  2 C       -0.9430     1.8350    -1.0130 C.2   1 <1>  -0.2880 
  3 C       -1.7980     0.8490    -1.3340 C.2   1 <1>  -0.1240 
  4 C       -3.2510     1.1210    -1.3770 C.2   1 <1>   0.6160 
  5 O       -3.8010     1.2260    -2.4700 O.2   1 <1>  -0.5700 
  6 N       -3.9040     1.2470    -0.1690 N.am  1 <1>  -0.6600 
  7 C       -5.3160     1.6260    -0.1460 C.3   1 <1>   0.3000 
  8 H       -5.8700     0.7480     0.2070 H.spc     1 <1>   0.0000 
  9 H       -5.6810     1.8800    -1.1460 H.spc     1 <1>   0.0000 
 10 C       -5.5350     2.8020     0.8110 C.3   1 <1>   0.2800 
 11 H       -5.0470     3.7100     0.4370 H.spc     1 <1>   0.0000 
 12 H       -6.6050     3.0110     0.9090 H.spc     1 <1>   0.0000 
 13 O       -5.0240     2.5090     2.1230 O.3   1 <1>  -0.5600 
 14 C       -3.6160     2.2220     2.0710 C.3   1 <1>   0.2800 
 15 H       -3.0850     3.1150     1.7210 H.spc     1 <1>   0.0000 
 16 H       -3.2830     2.0090     3.0910 H.spc     1 <1>   0.0000 
 17 C       -3.3330     1.0200     1.1640 C.3   1 <1>   0.3000 
 18 H       -2.2630     0.8060     1.1340 H.spc     1 <1>   0.0000 
 19 H       -3.8360     0.1310     1.5640 H.spc     1 <1>   0.0000 
 20 C       -1.3290    -0.5060    -1.7620 C.3   1 <1>   0.1380 
 21 H       -1.5560    -1.2240    -0.9640 H.spc     1 <1>   0.0000 
 22 H       -1.8640    -0.8340    -2.6610 H.spc     1 <1>   0.0000 
 23 C        0.1810    -0.5180    -2.0500 C.3   1 <1>   0.2700 
 24 H        0.5050    -1.5650    -2.1000 H.spc     1 <1>   0.0000 
 25 H        0.3790    -0.0740    -3.0350 H.spc     1 <1>   0.0000 
 26 N        0.9240     0.1990    -0.9990 N.3   1 <1>  -0.8100 
 27 C        2.3750     0.0390    -1.1970 C.3   1 <1>   0.4140 
 28 H        2.6210    -1.0280    -1.2890 H.spc     1 <1>   0.0000 
 29 H        2.6910     0.5070    -2.1390 H.spc     1 <1>   0.0000 
 30 C        3.2010     0.5680    -0.0430 C.ar  1 <1>  -0.1440 
 31 C        4.1470     1.5840    -0.2470 C.ar  1 <1>  -0.1500 
 32 H        4.2960     2.0080    -1.2380 H.spc     1 <1>   0.1500 
 33 C        4.9080     2.0660     0.8190 C.ar  1 <1>  -0.1500 
 34 H        5.6390     2.8530     0.6520 H.spc     1 <1>   0.1500 
 35 C        4.7350     1.5370     2.0970 C.ar  1 <1>  -0.1500 
 36 H        5.3300     1.9130     2.9260 H.spc     1 <1>   0.1500 
 37 C        3.8010     0.5260     2.3120 C.ar  1 <1>  -0.1500 
 38 H        3.6650     0.1120     3.3080 H.spc     1 <1>   0.1500 
 39 C        3.0390     0.0430     1.2470 C.ar  1 <1>  -0.1500 
 40 H        2.3060    -0.7430     1.4240 H.spc     1 <1>   0.1500 
 41 C        0.5430     1.6230    -0.9820 C.3   1 <1>   0.4080 
 42 H        0.9180     2.0880    -0.0620 H.spc     1 <1>   0.0000 
 43 H        0.9810     2.1640    -1.8310 H.spc     1 <1>   0.0000 
@<TRIPOS>BOND
  1   1   2  1   
  2   2   3  2   
  3   2  41  1   
  4   3   4  1   
  5   3  20  1   
  6   4   5  2   
  7   4   6  am  
  8   6   7  1   
  9   6  17  1   
 10   7   8  1   
 11   7   9  1   
 12   7  10  1   
 13  10  11  1   
 14  10  12  1   
 15  10  13  1   
 16  13  14  1   
 17  14  15  1   
 18  14  16  1   
 19  14  17  1   
 20  17  18  1   
 21  17  19  1   
 22  20  21  1   
 23  20  22  1   
 24  20  23  1   
 25  23  24  1   
 26  23  25  1   
 27  23  26  1   
 28  26  27  1   
 29  26  41  1   
 30  27  28  1   
 31  27  29  1   
 32  27  30  1   
 33  30  31  ar  
 34  30  39  ar  
 35  31  32  1   
 36  31  33  ar  
 37  33  34  1   
 38  33  35  ar  
 39  35  36  1   
 40  35  37  ar  
 41  37  38  1   
 42  37  39  ar  
 43  39  40  1   
 44  41  42  1   
 45  41  43  1   
@<TRIPOS>SUBSTRUCTURE
  1 ****   2 GROUP 4 **** **** 0
