@<TRIPOS>MOLECULE
CHEM120
16 16 1 0 0 
SMALL
USER_CHARGES


@<TRIPOS>ATOM
  1 H        0.0080    -2.8850     0.0070 H.spc     1 <1>   0.4000 
  2 N        1.0210    -3.0360     0.0060 N.2   1 <1>  -0.8500 
  3 C        1.6550    -1.9090     0.0040 C.2   1 <1>   0.4210 
  4 C        0.9550    -0.5920     0.0040 C.2   1 <1>  -0.1360 
  5 H       -0.1250    -0.5630     0.0060 H.spc     1 <1>   0.1500 
  6 C        1.7100     0.5140     0.0010 C.2   1 <1>  -0.0500 
  7 H        1.2790     1.5100     0.0010 H.spc     1 <1>   0.1500 
  8 N        3.0750     0.4730    -0.0020 N.pl3 1 <1>  -0.6000 
  9 H        3.6230     1.3310    -0.0040 H.spc     1 <1>   0.4000 
 10 C        3.7760    -0.7210    -0.0020 C.2   1 <1>   0.1140 
 11 C        5.2620    -0.6400    -0.0050 C.2   1 <1>   0.7060 
 12 O        5.8900     0.4080    -0.0070 O.2   1 <1>  -0.5700 
 13 O        5.8880    -1.8280    -0.0050 O.3   1 <1>  -0.6500 
 14 H        6.8390    -1.5960    -0.0070 H.spc     1 <1>   0.5000 
 15 C        3.1440    -1.9060     0.0010 C.2   1 <1>  -0.1360 
 16 H        3.6430    -2.8660     0.0010 H.spc     1 <1>   0.1500 
@<TRIPOS>BOND
  1   1   2  1   
  2   2   3  2   
  3   3   4  1   
  4   3  15  1   
  5   4   5  1   
  6   4   6  2   
  7   6   7  1   
  8   6   8  1   
  9   8   9  1   
 10   8  10  1   
 11  10  11  1   
 12  10  15  2   
 13  11  12  2   
 14  11  13  1   
 15  13  14  1   
 16  15  16  1   
@<TRIPOS>SUBSTRUCTURE
  1 ****  10 GROUP 4 **** **** 0
