@<TRIPOS>MOLECULE
CHEM046
35 37 1 0 0 
SMALL
USER_CHARGES


@<TRIPOS>ATOM
  1 H       -0.8020     5.1600     1.4280 H.spc     1 <1>   0.5000 
  2 O       -1.0350     5.9300     0.8730 O.3   1 <1>  -0.6500 
  3 C       -0.1540     6.2970    -0.0780 C.2   1 <1>   0.6340 
  4 O       -0.3040     7.2690    -0.7980 O.2   1 <1>  -0.5700 
  5 C        1.0520     5.4700    -0.1390 C.ar  1 <1>   0.0860 
  6 C        2.2720     6.1090    -0.1160 C.ar  1 <1>   0.1600 
  7 H        2.3440     7.1940    -0.0760 H.spc     1 <1>   0.1500 
  8 N        3.4540     5.4600    -0.1260 N.ar  1 <1>  -0.6200 
  9 C        3.4060     4.1160    -0.1780 C.ar  1 <1>   0.6200 
 10 C        4.6800     3.3700    -0.1770 C.ar  1 <1>   0.0000 
 11 C        5.9200     4.0290    -0.0810 C.ar  1 <1>  -0.1500 
 12 H        5.9550     5.1150    -0.0050 H.spc     1 <1>   0.1500 
 13 C        7.1290     3.3230    -0.0780 C.ar  1 <1>  -0.1500 
 14 H        8.0640     3.8720     0.0060 H.spc     1 <1>   0.1500 
 15 C        7.1350     1.9300    -0.1810 C.ar  1 <1>  -0.1440 
 16 C        8.4280     1.1700    -0.1430 C.3   1 <1>   0.1440 
 17 H        8.3410     0.2220    -0.6840 H.spc     1 <1>   0.0000 
 18 H        8.7080     0.9600     0.8940 H.spc     1 <1>   0.0000 
 19 H        9.2310     1.7420    -0.6180 H.spc     1 <1>   0.0000 
 20 C        5.9160     1.2540    -0.2640 C.ar  1 <1>  -0.1500 
 21 H        5.8920     0.1690    -0.3300 H.spc     1 <1>   0.1500 
 22 C        4.7100     1.9650    -0.2680 C.ar  1 <1>  -0.1500 
 23 H        3.7800     1.4030    -0.3440 H.spc     1 <1>   0.1500 
 24 N        2.2570     3.4090    -0.2230 N.ar  1 <1>  -0.6200 
 25 C        1.0830     4.0900    -0.2310 C.ar  1 <1>   0.3100 
 26 C       -0.1040     3.2220    -0.3450 C.ar  1 <1>   0.0000 
 27 C       -0.2060     2.0560     0.4280 C.ar  1 <1>  -0.1500 
 28 H        0.5880     1.7630     1.1110 H.spc     1 <1>   0.1500 
 29 C       -1.3340     1.2600     0.3120 C.ar  1 <1>   0.1600 
 30 H       -1.4410     0.3500     0.8960 H.spc     1 <1>   0.1500 
 31 N       -2.3610     1.5400    -0.5130 N.ar  1 <1>  -0.6200 
 32 C       -2.2470     2.6480    -1.2730 C.ar  1 <1>   0.1600 
 33 H       -3.0810     2.8390    -1.9420 H.spc     1 <1>   0.1500 
 34 C       -1.1550     3.5010    -1.2300 C.ar  1 <1>  -0.1500 
 35 H       -1.1380     4.3630    -1.8920 H.spc     1 <1>   0.1500 
@<TRIPOS>BOND
  1   1   2  1   
  2   2   3  1   
  3   3   4  2   
  4   3   5  1   
  5   5   6  ar  
  6   5  25  ar  
  7   6   7  1   
  8   6   8  ar  
  9   8   9  ar  
 10   9  10  1   
 11   9  24  ar  
 12  10  11  ar  
 13  10  22  ar  
 14  11  12  1   
 15  11  13  ar  
 16  13  14  1   
 17  13  15  ar  
 18  15  16  1   
 19  15  20  ar  
 20  16  17  1   
 21  16  18  1   
 22  16  19  1   
 23  20  21  1   
 24  20  22  ar  
 25  22  23  1   
 26  24  25  ar  
 27  25  26  1   
 28  26  27  ar  
 29  26  34  ar  
 30  27  28  1   
 31  27  29  ar  
 32  29  30  1   
 33  29  31  ar  
 34  31  32  ar  
 35  32  33  1   
 36  32  34  ar  
 37  34  35  1   
@<TRIPOS>SUBSTRUCTURE
  1 ****  24 GROUP 4 **** **** 0
