@<TRIPOS>MOLECULE
CHEM108
26 26 1 0 0 
SMALL
USER_CHARGES


@<TRIPOS>ATOM
  1 H        0.6710     0.4620    -1.2800 H.spc     1 <1>   0.1500 
  2 C        0.7300    -0.5270    -0.8250 C.ar  1 <1>  -0.1500 
  3 C        1.9760    -1.1630    -0.7510 C.ar  1 <1>  -0.1500 
  4 H        2.8400    -0.6420    -1.1530 H.spc     1 <1>   0.1500 
  5 C        2.0830    -2.4260    -0.1740 C.ar  1 <1>   0.0820 
  6 O        3.2320    -3.1530    -0.0410 O.3   1 <1>  -0.3630 
  7 C        4.4390    -2.5520    -0.4950 C.3   1 <1>   0.2800 
  8 H        4.6510    -1.6290     0.0550 H.spc     1 <1>   0.0000 
  9 H        5.2560    -3.2520    -0.3000 H.spc     1 <1>   0.0000 
 10 H        4.4050    -2.3700    -1.5740 H.spc     1 <1>   0.0000 
 11 C        0.9380    -3.0490     0.3270 C.ar  1 <1>  -0.1500 
 12 H        1.0390    -4.0310     0.7880 H.spc     1 <1>   0.1500 
 13 C       -0.3120    -2.4190     0.2460 C.ar  1 <1>  -0.0090 
 14 S       -1.7210    -3.2520     0.9450 S.o2  1 <1>   1.2040 
 15 O       -1.2430    -4.4800     1.5550 O.2   1 <1>  -0.6500 
 16 O       -2.4180    -2.2710     1.7530 O.2   1 <1>  -0.6500 
 17 C       -2.7560    -3.7070    -0.4310 C.3   1 <1>   0.1050 
 18 H       -3.6170    -4.2340    -0.0050 H.spc     1 <1>   0.0000 
 19 H       -3.1270    -2.7970    -0.9060 H.spc     1 <1>   0.0000 
 20 C       -2.0560    -4.5950    -1.4400 C.3   1 <1>   0.0000 
 21 H       -2.7540    -4.8900    -2.2300 H.spc     1 <1>   0.0000 
 22 H       -1.6720    -5.5060    -0.9700 H.spc     1 <1>   0.0000 
 23 H       -1.2150    -4.0800    -1.9120 H.spc     1 <1>   0.0000 
 24 C       -0.4250    -1.1460    -0.3250 C.ar  1 <1>   0.0730 
 25 C       -1.6710    -0.4490    -0.4620 C.1   1 <1>   0.4840 
 26 N       -2.6760     0.1010    -0.6420 N.1   1 <1>  -0.5570 
@<TRIPOS>BOND
  1   1   2  1   
  2   2   3  ar  
  3   2  24  ar  
  4   3   4  1   
  5   3   5  ar  
  6   5   6  1   
  7   5  11  ar  
  8   6   7  1   
  9   7   8  1   
 10   7   9  1   
 11   7  10  1   
 12  11  12  1   
 13  11  13  ar  
 14  13  14  1   
 15  13  24  ar  
 16  14  15  2   
 17  14  16  2   
 18  14  17  1   
 19  17  18  1   
 20  17  19  1   
 21  17  20  1   
 22  20  21  1   
 23  20  22  1   
 24  20  23  1   
 25  24  25  1   
 26  25  26  3   
@<TRIPOS>SUBSTRUCTURE
  1 ****  13 GROUP 4 **** **** 0
