@<TRIPOS>MOLECULE
CHEM096
29 30 1 0 0 
SMALL
USER_CHARGES


@<TRIPOS>ATOM
  1 H       -1.6550     2.6360     0.6250 H.spc     1 <1>   0.5000 
  2 O       -0.6850     2.5020     0.6780 O.3   1 <1>  -0.6500 
  3 C       -0.1790     3.4950    -0.0730 C.2   1 <1>   0.6340 
  4 O       -0.9040     4.2990    -0.6300 O.2   1 <1>  -0.5700 
  5 C        1.3040     3.4770    -0.1310 C.ar  1 <1>   0.0860 
  6 C        2.0640     2.5160     0.5470 C.ar  1 <1>  -0.1500 
  7 H        1.5830     1.7450     1.1440 H.spc     1 <1>   0.1500 
  8 C        3.4610     2.5390     0.4590 C.ar  1 <1>  -0.1500 
  9 H        4.0480     1.7890     0.9830 H.spc     1 <1>   0.1500 
 10 C        4.1140     3.5200    -0.2950 C.ar  1 <1>   0.1790 
 11 N        5.5160     3.5020    -0.3960 N.2   1 <1>  -0.1790 
 12 N        6.0040     4.4740     0.2130 N.2   1 <1>  -0.0620 
 13 N        7.3540     4.5130     0.1420 N.pl3 1 <1>  -0.5380 
 14 C        8.2040     3.5520    -0.5270 C.3   1 <1>   0.3000 
 15 H        7.9540     2.5280    -0.2330 H.spc     1 <1>   0.0000 
 16 H        8.0860     3.6790    -1.6080 H.spc     1 <1>   0.0000 
 17 C        9.6080     3.9420    -0.0740 C.3   1 <1>   0.0000 
 18 H       10.3740     3.6910    -0.8130 H.spc     1 <1>   0.0000 
 19 H        9.8550     3.4300     0.8640 H.spc     1 <1>   0.0000 
 20 C        9.4900     5.4430     0.1770 C.3   1 <1>   0.0000 
 21 H        9.5540     5.9830    -0.7750 H.spc     1 <1>   0.0000 
 22 H       10.2670     5.8280     0.8430 H.spc     1 <1>   0.0000 
 23 C        8.0910     5.5850     0.7640 C.3   1 <1>   0.3000 
 24 H        8.0920     5.4180     1.8460 H.spc     1 <1>   0.0000 
 25 H        7.6380     6.5540     0.5330 H.spc     1 <1>   0.0000 
 26 C        3.3470     4.4710    -0.9800 C.ar  1 <1>  -0.1500 
 27 H        3.8440     5.2290    -1.5800 H.spc     1 <1>   0.1500 
 28 C        1.9500     4.4550    -0.8960 C.ar  1 <1>  -0.1500 
 29 H        1.3730     5.2060    -1.4320 H.spc     1 <1>   0.1500 
@<TRIPOS>BOND
  1   1   2  1   
  2   2   3  1   
  3   3   4  2   
  4   3   5  1   
  5   5   6  ar  
  6   5  28  ar  
  7   6   7  1   
  8   6   8  ar  
  9   8   9  1   
 10   8  10  ar  
 11  10  11  1   
 12  10  26  ar  
 13  11  12  2   
 14  12  13  1   
 15  13  14  1   
 16  13  23  1   
 17  14  15  1   
 18  14  16  1   
 19  14  17  1   
 20  17  18  1   
 21  17  19  1   
 22  17  20  1   
 23  20  21  1   
 24  20  22  1   
 25  20  23  1   
 26  23  24  1   
 27  23  25  1   
 28  26  27  1   
 29  26  28  ar  
 30  28  29  1   
@<TRIPOS>SUBSTRUCTURE
  1 ****  10 GROUP 4 **** **** 0
