@<TRIPOS>MOLECULE
CHEM103
39 39 1 0 0 
SMALL
USER_CHARGES


@<TRIPOS>ATOM
  1 H       -5.0110     2.7670     0.3520 H.spc     1 <1>   0.3600 
  2 N       -4.0030     2.8280     0.4930 N.3   1 <1>  -0.9000 
  3 C       -3.4490     4.0270    -0.1320 C.3   1 <1>   0.2700 
  4 C       -4.1870     5.2270     0.5000 C.3   1 <1>   0.0000 
  5 H       -4.0600     5.2470     1.5890 H.spc     1 <1>   0.0000 
  6 H       -3.8040     6.1760     0.1060 H.spc     1 <1>   0.0000 
  7 H       -5.2630     5.1930     0.2940 H.spc     1 <1>   0.0000 
  8 C       -3.7400     4.0690    -1.6450 C.3   1 <1>   0.0000 
  9 H       -3.4580     5.0400    -2.0690 H.spc     1 <1>   0.0000 
 10 H       -4.8080     3.9250    -1.8480 H.spc     1 <1>   0.0000 
 11 H       -3.1910     3.3080    -2.2050 H.spc     1 <1>   0.0000 
 12 C       -1.9340     4.1760     0.1560 C.3   1 <1>   0.0000 
 13 H       -1.7790     4.8080     1.0420 H.spc     1 <1>   0.0000 
 14 H       -1.4700     4.7210    -0.6780 H.spc     1 <1>   0.0000 
 15 C       -1.1680     2.8530     0.4100 C.3   1 <1>   0.0000 
 16 H       -1.1840     2.6720     1.4950 H.spc     1 <1>   0.0000 
 17 C        0.3110     2.9560    -0.0350 C.3   1 <1>   0.2610 
 18 H        0.3380     3.1220    -1.1200 H.spc     1 <1>   0.0000 
 19 C        1.0190     4.0580     0.6340 C.1   1 <1>   0.3570 
 20 N        1.5710     4.9500     1.1300 N.1   1 <1>  -0.5570 
 21 C        1.0690     1.6830     0.2810 C.2   1 <1>   0.6590 
 22 O        1.0960     1.1350     1.3750 O.2   1 <1>  -0.5700 
 23 O        1.7080     1.2230    -0.8340 O.3   1 <1>  -0.4300 
 24 C        2.4600     0.0260    -0.6260 C.3   1 <1>   0.2800 
 25 H        1.7980    -0.7940    -0.3300 H.spc     1 <1>   0.0000 
 26 H        2.9410    -0.2400    -1.5710 H.spc     1 <1>   0.0000 
 27 H        3.2380     0.1870     0.1260 H.spc     1 <1>   0.0000 
 28 C       -1.8950     1.6850    -0.2720 C.3   1 <1>   0.0000 
 29 H       -1.8640     1.8330    -1.3580 H.spc     1 <1>   0.0000 
 30 H       -1.3620     0.7430    -0.0900 H.spc     1 <1>   0.0000 
 31 C       -3.3520     1.5420     0.2230 C.3   1 <1>   0.2700 
 32 C       -3.3800     0.7730     1.5600 C.3   1 <1>   0.0000 
 33 H       -4.4070     0.6220     1.9140 H.spc     1 <1>   0.0000 
 34 H       -2.9230    -0.2180     1.4540 H.spc     1 <1>   0.0000 
 35 H       -2.8360     1.3040     2.3490 H.spc     1 <1>   0.0000 
 36 C       -4.1680     0.7310    -0.8000 C.3   1 <1>   0.0000 
 37 H       -5.1970     0.5690    -0.4570 H.spc     1 <1>   0.0000 
 38 H       -4.2200     1.2320    -1.7720 H.spc     1 <1>   0.0000 
 39 H       -3.7180    -0.2550    -0.9630 H.spc     1 <1>   0.0000 
@<TRIPOS>BOND
  1   1   2  1   
  2   2   3  1   
  3   2  31  1   
  4   3   4  1   
  5   3   8  1   
  6   3  12  1   
  7   4   5  1   
  8   4   6  1   
  9   4   7  1   
 10   8   9  1   
 11   8  10  1   
 12   8  11  1   
 13  12  13  1   
 14  12  14  1   
 15  12  15  1   
 16  15  16  1   
 17  15  17  1   
 18  15  28  1   
 19  17  18  1   
 20  17  19  1   
 21  17  21  1   
 22  19  20  3   
 23  21  22  2   
 24  21  23  1   
 25  23  24  1   
 26  24  25  1   
 27  24  26  1   
 28  24  27  1   
 29  28  29  1   
 30  28  30  1   
 31  28  31  1   
 32  31  32  1   
 33  31  36  1   
 34  32  33  1   
 35  32  34  1   
 36  32  35  1   
 37  36  37  1   
 38  36  38  1   
 39  36  39  1   
@<TRIPOS>SUBSTRUCTURE
  1 ****  15 GROUP 4 **** **** 0
