@<TRIPOS>MOLECULE
CHEM007
21 21 1 0 0 
SMALL
USER_CHARGES


@<TRIPOS>ATOM
  1 H       -5.3870     3.0050     0.1000 H.spc      1 <1>   0.1500 
  2 C       -4.5070     2.3740     0.0390 C.ar  1 <1>  -0.1500 
  3 C       -3.2260     2.9260     0.0920 C.ar  1 <1>  -0.1500 
  4 H       -3.1070     4.0020     0.1950 H.spc      1 <1>   0.1500 
  5 C       -2.0930     2.1070     0.0130 C.ar  1 <1>   0.0820 
  6 O       -0.9030     2.7770     0.0750 O.3   1 <1>  -0.3630 
  7 C        0.2900     1.9920     0.0020 C.3   1 <1>   0.2800 
  8 H        0.3200     1.4350    -0.9430 H.spc      1 <1>   0.0000 
  9 H        0.3290     1.2960     0.8490 H.spc      1 <1>   0.0000 
 10 C        1.4900     2.9440     0.0680 C.3   1 <1>   0.2700 
 11 H        1.4250     3.5610     0.9710 H.spc      1 <1>   0.0000 
 12 H        1.4470     3.6370    -0.7800 H.spc      1 <1>   0.0000 
 13 N        2.7680     2.2330     0.0480 N.3   1 <1>  -0.9900 
 14 H        2.8670     1.6840     0.9030 H.spc      1 <1>   0.3600 
 15 H        3.5270     2.9140     0.0660 H.spc      1 <1>   0.3600 
 16 C       -2.2530     0.7250    -0.1200 C.ar  1 <1>  -0.1500 
 17 H       -1.4030     0.0530    -0.1870 H.spc      1 <1>   0.1500 
 18 C       -3.5350     0.1710    -0.1740 C.ar  1 <1>  -0.1500 
 19 H       -3.6720    -0.9000    -0.2780 H.spc      1 <1>   0.1500 
 20 C       -4.6490     0.9990    -0.0930 C.ar  1 <1>   0.1900 
 21 F       -5.8750     0.4640    -0.1450 F     1 <1>  -0.1900 
@<TRIPOS>BOND
  1   1   2  1   
  2   2   3  ar  
  3   2  20  ar  
  4   3   4  1   
  5   3   5  ar  
  6   5   6  1   
  7   5  16  ar  
  8   6   7  1   
  9   7   8  1   
 10   7   9  1   
 11   7  10  1   
 12  10  11  1   
 13  10  12  1   
 14  10  13  1   
 15  13  14  1   
 16  13  15  1   
 17  16  17  1   
 18  16  18  ar  
 19  18  19  1   
 20  18  20  ar  
 21  20  21  1   
@<TRIPOS>SUBSTRUCTURE
  1 ****   5 GROUP 4 **** **** 0
