@<TRIPOS>MOLECULE
CHEM144
23 24 1 0 0 
SMALL
USER_CHARGES


@<TRIPOS>ATOM
  1 H       10.7060    -3.3720    -1.4290 H.spc     1 <1>   0.5000 
  2 O       10.0260    -2.7360    -1.1180 O.3   1 <1>  -0.6500 
  3 C        8.9270    -3.5030    -0.9340 C.2   1 <1>   0.6590 
  4 O        8.9900    -4.7030    -1.1390 O.2   1 <1>  -0.5700 
  5 C        7.7580    -2.6830    -0.4380 C.3   1 <1>   0.2910 
  6 H        7.6440    -1.8150    -1.0940 H.spc     1 <1>   0.0000 
  7 H        7.9800    -2.3610     0.5830 H.spc     1 <1>   0.0000 
  8 S        6.2050    -3.6300    -0.4520 S.3   1 <1>  -0.4600 
  9 C        5.1680    -2.4540     0.4480 C.3   1 <1>   0.6540 
 10 H        5.5080    -2.3720     1.4860 H.spc     1 <1>   0.0000 
 11 O        5.2170    -1.1380    -0.1420 O.3   1 <1>  -0.4300 
 12 C        3.9790    -0.6950    -0.5110 C.2   1 <1>   0.6340 
 13 O        3.7180     0.3750    -1.0220 O.2   1 <1>  -0.5700 
 14 C        3.0340    -1.7440    -0.1600 C.ar  1 <1>   0.0860 
 15 C        1.6590    -1.7520    -0.3250 C.ar  1 <1>  -0.1500 
 16 H        1.1440    -0.9080    -0.7730 H.spc     1 <1>   0.1500 
 17 C        0.9660    -2.8830     0.1070 C.ar  1 <1>  -0.1500 
 18 H       -0.1150    -2.9320    -0.0060 H.spc     1 <1>   0.1500 
 19 C        1.6560    -3.9610     0.6870 C.ar  1 <1>  -0.1500 
 20 H        1.1010    -4.8370     1.0170 H.spc     1 <1>   0.1500 
 21 C        3.0460    -3.9220     0.8410 C.ar  1 <1>  -0.1500 
 22 H        3.5720    -4.7610     1.2880 H.spc     1 <1>   0.1500 
 23 C        3.7270    -2.7960     0.4030 C.ar  1 <1>  -0.1440 
@<TRIPOS>BOND
  1   1   2  1   
  2   2   3  1   
  3   3   4  2   
  4   3   5  1   
  5   5   6  1   
  6   5   7  1   
  7   5   8  1   
  8   8   9  1   
  9   9  10  1   
 10   9  11  1   
 11   9  23  1   
 12  11  12  1   
 13  12  13  2   
 14  12  14  1   
 15  14  15  ar  
 16  14  23  ar  
 17  15  16  1   
 18  15  17  ar  
 19  17  18  1   
 20  17  19  ar  
 21  19  20  1   
 22  19  21  ar  
 23  21  22  1   
 24  21  23  ar  
@<TRIPOS>SUBSTRUCTURE
  1 ****   9 GROUP 4 **** **** 0
