@<TRIPOS>MOLECULE
CHEM030
26 28 1 0 0 
SMALL
USER_CHARGES


@<TRIPOS>ATOM
  1 H       -1.5520     1.6650     0.0010 H.spc     1 <1>   0.4500 
  2 O       -0.6010     1.4740     0.0020 O.3   1 <1>  -0.5320 
  3 C        0.1240     2.6310     0.0010 C.ar  1 <1>   0.0820 
  4 C       -0.5720     3.8440     0.0000 C.ar  1 <1>  -0.1500 
  5 H       -1.6580     3.8680     0.0000 H.spc     1 <1>   0.1500 
  6 C        0.1270     5.0470    -0.0020 C.ar  1 <1>  -0.1500 
  7 H       -0.4080     5.9940    -0.0020 H.spc     1 <1>   0.1500 
  8 C        1.5190     5.0340    -0.0020 C.ar  1 <1>  -0.1500 
  9 H        2.0600     5.9800    -0.0030 H.spc     1 <1>   0.1500 
 10 C        2.2220     3.8160    -0.0010 C.ar  1 <1>   0.0860 
 11 C        1.5300     2.6040     0.0000 C.ar  1 <1>   0.0860 
 12 C        2.3000     1.3360     0.0000 C.2   1 <1>   0.3980 
 13 O        1.7570     0.2380     0.0010 O.2   1 <1>  -0.5700 
 14 C        3.7780     1.3810     0.0010 C.ar  1 <1>   0.0860 
 15 C        4.4810     0.1630     0.0020 C.ar  1 <1>  -0.1500 
 16 H        3.9400    -0.7830     0.0030 H.spc     1 <1>   0.1500 
 17 C        5.8730     0.1490     0.0030 C.ar  1 <1>  -0.1500 
 18 H        6.4070    -0.7980     0.0030 H.spc     1 <1>   0.1500 
 19 C        6.5720     1.3520     0.0020 C.ar  1 <1>  -0.1500 
 20 H        7.6580     1.3280     0.0020 H.spc     1 <1>   0.1500 
 21 C        5.8760     2.5650     0.0000 C.ar  1 <1>   0.0820 
 22 O        6.6010     3.7220     0.0000 O.3   1 <1>  -0.5320 
 23 H        7.5520     3.5310    -0.0010 H.spc     1 <1>   0.4500 
 24 C        4.4700     2.5920     0.0000 C.ar  1 <1>   0.0860 
 25 C        3.7000     3.8600    -0.0020 C.2   1 <1>   0.3980 
 26 O        4.2440     4.9580    -0.0030 O.2   1 <1>  -0.5700 
@<TRIPOS>BOND
  1   1   2  1   
  2   2   3  1   
  3   3   4  ar  
  4   3  11  ar  
  5   4   5  1   
  6   4   6  ar  
  7   6   7  1   
  8   6   8  ar  
  9   8   9  1   
 10   8  10  ar  
 11  10  11  ar  
 12  10  25  1   
 13  11  12  1   
 14  12  13  2   
 15  12  14  1   
 16  14  15  ar  
 17  14  24  ar  
 18  15  16  1   
 19  15  17  ar  
 20  17  18  1   
 21  17  19  ar  
 22  19  20  1   
 23  19  21  ar  
 24  21  22  1   
 25  21  24  ar  
 26  22  23  1   
 27  24  25  1   
 28  25  26  2   
@<TRIPOS>SUBSTRUCTURE
  1 ****  25 GROUP 4 **** **** 0
