@<TRIPOS>MOLECULE
CHEM149
29 30 1 0 0 
SMALL
USER_CHARGES


@<TRIPOS>ATOM
  1 H       -5.9480    -1.5250     1.2480 H.spc     1 <1>   0.1500 
  2 C       -5.2300    -1.7170     0.4580 C.ar  1 <1>  -0.1500 
  3 C       -3.8830    -1.3870     0.6230 C.ar  1 <1>  -0.1500 
  4 H       -3.5570    -0.9390     1.5610 H.spc     1 <1>   0.1500 
  5 C       -2.9370    -1.6300    -0.3920 C.ar  1 <1>  -0.0320 
  6 C       -1.4670    -1.2750    -0.1850 C.3   1 <1>   0.0320 
  7 C       -0.6750    -2.2390     0.6620 C.2   1 <1>   0.6300 
  8 O       -0.5510    -2.0590     1.8660 O.2   1 <1>  -0.5700 
  9 N       -0.1340    -3.2920    -0.0380 N.am  1 <1>  -0.7300 
 10 H       -0.3030    -3.3530    -1.0330 H.spc     1 <1>   0.3700 
 11 C        0.6650    -4.3090     0.6060 C.3   1 <1>   0.3000 
 12 H        0.5820    -5.2180     0.0030 H.spc     1 <1>   0.0000 
 13 H        0.2540    -4.5170     1.6000 H.spc     1 <1>   0.0000 
 14 C        2.1190    -3.8880     0.7200 C.3   1 <1>   0.0000 
 15 H        2.7100    -4.6810     1.1860 H.spc     1 <1>   0.0000 
 16 H        2.5430    -3.6760    -0.2670 H.spc     1 <1>   0.0000 
 17 H        2.2210    -2.9820     1.3270 H.spc     1 <1>   0.0000 
 18 C       -1.1270     0.2090    -0.0410 C.3   1 <1>  -0.2000 
 19 H       -0.3510     0.4840     0.6660 H.spc     1 <1>   0.1000 
 20 H       -1.9280     0.9360    -0.1110 H.spc     1 <1>   0.1000 
 21 C       -0.7270    -0.5160    -1.2850 C.3   1 <1>  -0.2000 
 22 H        0.3310    -0.7110    -1.4290 H.spc     1 <1>   0.1000 
 23 H       -1.2510    -0.2600    -2.1990 H.spc     1 <1>   0.1000 
 24 C       -3.3980    -2.2320    -1.5790 C.ar  1 <1>  -0.1500 
 25 H       -2.6990    -2.4440    -2.3850 H.spc     1 <1>   0.1500 
 26 C       -4.7450    -2.5620    -1.7490 C.ar  1 <1>  -0.1500 
 27 H       -5.0920    -3.0220    -2.6690 H.spc     1 <1>   0.1500 
 28 C       -5.6480    -2.3000    -0.7290 C.ar  1 <1>   0.1900 
 29 F       -6.9390    -2.6180    -0.8920 F     1 <1>  -0.1900 
@<TRIPOS>BOND
  1   1   2  1   
  2   2   3  ar  
  3   2  28  ar  
  4   3   4  1   
  5   3   5  ar  
  6   5   6  1   
  7   5  24  ar  
  8   6   7  1   
  9   6  18  1   
 10   6  21  1   
 11   7   8  2   
 12   7   9  am  
 13   9  10  1   
 14   9  11  1   
 15  11  12  1   
 16  11  13  1   
 17  11  14  1   
 18  14  15  1   
 19  14  16  1   
 20  14  17  1   
 21  18  19  1   
 22  18  20  1   
 23  18  21  1   
 24  21  22  1   
 25  21  23  1   
 26  24  25  1   
 27  24  26  ar  
 28  26  27  1   
 29  26  28  ar  
 30  28  29  1   
@<TRIPOS>SUBSTRUCTURE
  1 ****   5 GROUP 4 **** **** 0
