@<TRIPOS>MOLECULE
CHEM038
28 29 1 0 0 
SMALL
USER_CHARGES


@<TRIPOS>ATOM
  1 H        1.9080     1.5850    -1.1700 H.spc     1 <1>   0.1500 
  2 C        1.0340     2.1480    -0.8500 C.ar  1 <1>  -0.1500 
  3 C        0.1790     1.6180     0.1160 C.ar  1 <1>  -0.1500 
  4 H        0.3930     0.6450     0.5520 H.spc     1 <1>   0.1500 
  5 C       -0.9420     2.3400     0.5340 C.ar  1 <1>  -0.1500 
  6 H       -1.5700     1.9170     1.3120 H.spc     1 <1>   0.1500 
  7 C       -1.2130     3.5940    -0.0260 C.ar  1 <1>   0.0860 
  8 C       -2.4000     4.3980     0.3860 C.2   1 <1>   0.3030 
  9 N       -2.2780     5.6810     0.4570 N.2   1 <1>  -0.6960 
 10 C       -3.4660     6.4440     0.8420 C.3   1 <1>   0.2460 
 11 H       -3.9060     6.0850     1.7780 H.spc     1 <1>   0.0000 
 12 H       -3.1390     7.4720     1.0400 H.spc     1 <1>   0.0000 
 13 C       -4.4750     6.4700    -0.2980 C.3   1 <1>   0.2460 
 14 H       -5.2300     7.2280    -0.0610 H.spc     1 <1>   0.0000 
 15 H       -3.9850     6.7950    -1.2230 H.spc     1 <1>   0.0000 
 16 N       -5.1910     5.2260    -0.5730 N.2   1 <1>  -0.6960 
 17 C       -4.8600     4.0430    -0.1850 C.2   1 <1>   0.3280 
 18 C       -5.7300     2.8510    -0.5810 C.3   1 <1>   1.0810 
 19 F       -6.1900     2.1900     0.5180 F     1 <1>  -0.3400 
 20 F       -6.8200     3.1740    -1.3240 F     1 <1>  -0.3400 
 21 F       -5.0230     1.9370    -1.3020 F     1 <1>  -0.3400 
 22 C       -3.6900     3.6810     0.6980 C.3   1 <1>   0.1220 
 23 H       -3.5480     2.5990     0.6180 H.spc     1 <1>   0.0000 
 24 H       -3.9690     3.8710     1.7410 H.spc     1 <1>   0.0000 
 25 C       -0.3410     4.1290    -0.9830 C.ar  1 <1>  -0.1500 
 26 H       -0.5310     5.1110    -1.4090 H.spc     1 <1>   0.1500 
 27 C        0.7770     3.4040    -1.3970 C.ar  1 <1>  -0.1500 
 28 H        1.4500     3.8230    -2.1410 H.spc     1 <1>   0.1500 
@<TRIPOS>BOND
  1   1   2  1   
  2   2   3  ar  
  3   2  27  ar  
  4   3   4  1   
  5   3   5  ar  
  6   5   6  1   
  7   5   7  ar  
  8   7   8  1   
  9   7  25  ar  
 10   8   9  2   
 11   8  22  1   
 12   9  10  1   
 13  10  11  1   
 14  10  12  1   
 15  10  13  1   
 16  13  14  1   
 17  13  15  1   
 18  13  16  1   
 19  16  17  2   
 20  17  18  1   
 21  17  22  1   
 22  18  19  1   
 23  18  20  1   
 24  18  21  1   
 25  22  23  1   
 26  22  24  1   
 27  25  26  1   
 28  25  27  ar  
 29  27  28  1   
@<TRIPOS>SUBSTRUCTURE
  1 ****   8 GROUP 4 **** **** 0
