@<TRIPOS>MOLECULE
CHEM072
26 27 1 0 0 
SMALL
USER_CHARGES


@<TRIPOS>ATOM
  1 H        9.7590    -5.3880     0.0100 H.spc     1 <1>   0.5000 
  2 O        8.7800    -5.4220    -0.0310 O.3   1 <1>  -0.6500 
  3 C        8.4120    -4.1220     0.0430 C.2   1 <1>   0.6590 
  4 O        9.2710    -3.2620     0.1370 O.2   1 <1>  -0.5700 
  5 C        6.9100    -3.9710    -0.0050 C.3   1 <1>   0.2910 
  6 H        6.5550    -4.4130    -0.9400 H.spc     1 <1>   0.0000 
  7 H        6.4900    -4.5010     0.8560 H.spc     1 <1>   0.0000 
  8 S        6.4130    -2.2190     0.0600 S.3   1 <1>  -0.3320 
  9 C        4.6290    -2.3780    -0.0250 C.ar  1 <1>   0.4120 
 10 N        4.1450    -3.6490    -0.0650 N.ar  1 <1>  -0.6200 
 11 C        2.8100    -3.7760    -0.1200 C.ar  1 <1>   0.1660 
 12 C        1.9160    -2.7170    -0.1450 C.ar  1 <1>  -0.1440 
 13 C        2.4030    -1.4270    -0.1170 C.ar  1 <1>  -0.1500 
 14 H        1.7260    -0.5770    -0.1470 H.spc     1 <1>   0.1500 
 15 C        3.7930    -1.2470    -0.0490 C.ar  1 <1>   0.0730 
 16 C        4.3080     0.0880    -0.0120 C.1   1 <1>   0.4840 
 17 N        4.6760     1.1890     0.0150 N.1   1 <1>  -0.5570 
 18 C        0.5080    -3.2000    -0.2500 C.3   1 <1>   0.1440 
 19 H        0.1600    -3.1270    -1.2850 H.spc     1 <1>   0.0000 
 20 H       -0.1720    -2.6600     0.4140 H.spc     1 <1>   0.0000 
 21 C        0.6650    -4.6670     0.1800 C.3   1 <1>   0.0000 
 22 H       -0.1000    -5.3150    -0.2580 H.spc     1 <1>   0.0000 
 23 H        0.5580    -4.7340     1.2720 H.spc     1 <1>   0.0000 
 24 C        2.0870    -5.0900    -0.2110 C.3   1 <1>   0.1440 
 25 H        2.4960    -5.8370     0.4750 H.spc     1 <1>   0.0000 
 26 H        2.1230    -5.4630    -1.2390 H.spc     1 <1>   0.0000 
@<TRIPOS>BOND
  1   1   2  1   
  2   2   3  1   
  3   3   4  2   
  4   3   5  1   
  5   5   6  1   
  6   5   7  1   
  7   5   8  1   
  8   8   9  1   
  9   9  10  ar  
 10   9  15  ar  
 11  10  11  ar  
 12  11  12  ar  
 13  11  24  1   
 14  12  13  ar  
 15  12  18  1   
 16  13  14  1   
 17  13  15  ar  
 18  15  16  1   
 19  16  17  3   
 20  18  19  1   
 21  18  20  1   
 22  18  21  1   
 23  21  22  1   
 24  21  23  1   
 25  21  24  1   
 26  24  25  1   
 27  24  26  1   
@<TRIPOS>SUBSTRUCTURE
  1 ****   9 GROUP 4 **** **** 0
