@<TRIPOS>MOLECULE
CHEM095
28 28 1 0 0 
SMALL
USER_CHARGES


@<TRIPOS>ATOM
  1 H       10.0920     3.5590     0.4900 H.spc     1 <1>   0.5000 
  2 O        9.2390     3.1160     0.2950 O.3   1 <1>  -0.6500 
  3 C        8.3520     4.1270     0.2520 C.2   1 <1>   0.6340 
  4 O        8.7000     5.2800     0.4310 O.2   1 <1>  -0.5700 
  5 C        6.9700     3.6700    -0.0360 C.ar  1 <1>   0.0860 
  6 C        5.9550     4.6310    -0.1140 C.ar  1 <1>  -0.1500 
  7 H        6.1810     5.6850     0.0410 H.spc     1 <1>   0.1500 
  8 C        4.6390     4.2440    -0.3840 C.ar  1 <1>  -0.1500 
  9 H        3.8540     4.9950    -0.4300 H.spc     1 <1>   0.1500 
 10 C        4.3370     2.8980    -0.5900 C.ar  1 <1>   0.1990 
 11 N        2.9810     2.5070    -0.8290 N.am  1 <1>  -0.7570 
 12 H        2.9220     1.6220    -1.3340 H.spc     1 <1>   0.4200 
 13 S        2.0560     2.3050     0.5730 S.o2  1 <1>   1.5760 
 14 O        2.4330     1.0340     1.1470 O.2   1 <1>  -0.6500 
 15 O        2.0350     3.5250     1.3440 O.2   1 <1>  -0.6500 
 16 N        0.5340     2.1200    -0.1620 N.am  1 <1>  -0.8490 
 17 C        0.0150     3.3410    -0.8200 C.3   1 <1>   0.3560 
 18 H        0.7480     3.7550    -1.5180 H.spc     1 <1>   0.0000 
 19 H       -0.8760     3.0910    -1.4050 H.spc     1 <1>   0.0000 
 20 H       -0.2570     4.1020    -0.0820 H.spc     1 <1>   0.0000 
 21 C       -0.4790     1.5240     0.7390 C.3   1 <1>   0.3560 
 22 H       -0.6650     2.1700     1.6030 H.spc     1 <1>   0.0000 
 23 H       -1.4220     1.3850     0.2000 H.spc     1 <1>   0.0000 
 24 H       -0.1570     0.5360     1.0800 H.spc     1 <1>   0.0000 
 25 C        5.3400     1.9310    -0.4930 C.ar  1 <1>  -0.1500 
 26 H        5.1090     0.8760    -0.6140 H.spc     1 <1>   0.1500 
 27 C        6.6570     2.3170    -0.2230 C.ar  1 <1>  -0.1500 
 28 H        7.4280     1.5540    -0.1510 H.spc     1 <1>   0.1500 
@<TRIPOS>BOND
  1   1   2  1   
  2   2   3  1   
  3   3   4  2   
  4   3   5  1   
  5   5   6  ar  
  6   5  27  ar  
  7   6   7  1   
  8   6   8  ar  
  9   8   9  1   
 10   8  10  ar  
 11  10  11  1   
 12  10  25  ar  
 13  11  12  1   
 14  11  13  am  
 15  13  14  2   
 16  13  15  2   
 17  13  16  am  
 18  16  17  1   
 19  16  21  1   
 20  17  18  1   
 21  17  19  1   
 22  17  20  1   
 23  21  22  1   
 24  21  23  1   
 25  21  24  1   
 26  25  26  1   
 27  25  27  ar  
 28  27  28  1   
@<TRIPOS>SUBSTRUCTURE
  1 ****  10 GROUP 4 **** **** 0
