@<TRIPOS>MOLECULE
CHEM048
23 23 1 0 0 
SMALL
USER_CHARGES


@<TRIPOS>ATOM
  1 H        1.8240     3.9760     0.2230 H.spc     1 <1>   0.4500 
  2 O        1.1810     3.2500     0.2120 O.3   1 <1>  -0.5320 
  3 C        1.8430     2.0510     0.2510 C.ar  1 <1>   0.0820 
  4 C        3.2400     2.0320     0.2910 C.ar  1 <1>  -0.1500 
  5 H        3.7950     2.9660     0.2920 H.spc     1 <1>   0.1500 
  6 C        3.9270     0.8120     0.3210 C.ar  1 <1>   0.0280 
  7 C        5.3950     0.8280     0.3880 C.2   1 <1>  -0.1780 
  8 H        5.8290     1.6400     0.9700 H.spc     1 <1>   0.1500 
  9 C        6.1640    -0.0700    -0.2420 C.2   1 <1>   0.0540 
 10 H        5.8590    -0.9000    -0.8600 H.spc     1 <1>   0.1500 
 11 N        7.6020     0.0180    -0.1440 N.pl3 1 <1>   0.8360 
 12 O        8.2350    -0.8590    -0.7440 O.2   1 <1>  -0.5200 
 13 O        8.1040     0.9390     0.5140 O.2   1 <1>  -0.5200 
 14 C        3.1870    -0.3770     0.3370 C.ar  1 <1>  -0.1500 
 15 H        3.6810    -1.3440     0.3950 H.spc     1 <1>   0.1500 
 16 C        1.7860    -0.3520     0.2990 C.ar  1 <1>  -0.1500 
 17 H        1.2600    -1.3010     0.3130 H.spc     1 <1>   0.1500 
 18 C        1.1000     0.8630     0.2530 C.ar  1 <1>   0.0820 
 19 O       -0.2620     1.0000     0.2130 O.3   1 <1>  -0.3630 
 20 C       -1.0420    -0.1870     0.2340 C.3   1 <1>   0.2800 
 21 H       -2.0960     0.1050     0.2030 H.spc     1 <1>   0.0000 
 22 H       -0.8430    -0.8060    -0.6470 H.spc     1 <1>   0.0000 
 23 H       -0.8800    -0.7500     1.1590 H.spc     1 <1>   0.0000 
@<TRIPOS>BOND
  1   1   2  1   
  2   2   3  1   
  3   3   4  ar  
  4   3  18  ar  
  5   4   5  1   
  6   4   6  ar  
  7   6   7  1   
  8   6  14  ar  
  9   7   8  1   
 10   7   9  2   
 11   9  10  1   
 12   9  11  1   
 13  11  12  2   
 14  11  13  2   
 15  14  15  1   
 16  14  16  ar  
 17  16  17  1   
 18  16  18  ar  
 19  18  19  1   
 20  19  20  1   
 21  20  21  1   
 22  20  22  1   
 23  20  23  1   
@<TRIPOS>SUBSTRUCTURE
  1 ****   6 GROUP 4 **** **** 0
