@<TRIPOS>MOLECULE
CHEM066
36 38 1 0 0 
SMALL
USER_CHARGES


@<TRIPOS>ATOM
  1 H        3.7320    -4.5230     2.9130 H.spc     1 <1>   0.1500 
  2 C        3.4880    -4.6030     1.8570 C.ar  1 <1>  -0.1500 
  3 C        4.3190    -5.3260     1.0040 C.ar  1 <1>  -0.1500 
  4 H        5.2120    -5.8140     1.3800 H.spc     1 <1>   0.1500 
  5 C        3.9990    -5.4220    -0.3440 C.ar  1 <1>   0.1900 
  6 F        4.7950    -6.1240    -1.1610 F     1 <1>  -0.1900 
  7 C        2.8620    -4.8050    -0.8590 C.ar  1 <1>  -0.1500 
  8 H        2.6450    -4.9160    -1.9190 H.spc     1 <1>   0.1500 
  9 C        2.0190    -4.0670    -0.0140 C.ar  1 <1>  -0.1440 
 10 C        0.7590    -3.4060    -0.5850 C.3   1 <1>   0.2820 
 11 H        0.8610    -3.4040    -1.6800 H.spc     1 <1>   0.0000 
 12 C        0.6550    -1.9390    -0.2190 C.2   1 <1>  -0.0730 
 13 C        1.7850    -1.1060    -0.4970 C.1   1 <1>   0.4920 
 14 N        2.6950    -0.4240    -0.7280 N.1   1 <1>  -0.5570 
 15 C       -0.4820    -1.4220     0.2930 C.2   1 <1>   0.0330 
 16 C       -0.6330     0.0380     0.6700 C.3   1 <1>   0.1380 
 17 H        0.2920     0.6160     0.6060 H.spc     1 <1>   0.0000 
 18 H       -0.9890     0.1170     1.7040 H.spc     1 <1>   0.0000 
 19 H       -1.3720     0.5150     0.0170 H.spc     1 <1>   0.0000 
 20 N       -1.6250    -2.1560     0.4910 N.2   1 <1>  -0.6210 
 21 C       -1.6430    -3.4270     0.2550 C.2   1 <1>   0.3280 
 22 C       -2.9430    -4.1690     0.4960 C.3   1 <1>   0.0610 
 23 H       -3.7420    -3.4590     0.7360 H.spc     1 <1>   0.0000 
 24 H       -2.8080    -4.8350     1.3550 H.spc     1 <1>   0.0000 
 25 C       -3.2980    -4.9580    -0.7560 C.3   1 <1>   0.0000 
 26 H       -3.4580    -4.2650    -1.5920 H.spc     1 <1>   0.0000 
 27 H       -4.2360    -5.5010    -0.5970 H.spc     1 <1>   0.0000 
 28 C       -2.1930    -5.9410    -1.1180 C.3   1 <1>   0.0610 
 29 H       -2.0640    -6.6970    -0.3360 H.spc     1 <1>   0.0000 
 30 H       -2.4470    -6.4550    -2.0510 H.spc     1 <1>   0.0000 
 31 C       -0.8730    -5.2170    -1.3000 C.2   1 <1>   0.4480 
 32 O       -0.1430    -5.4860    -2.2530 O.2   1 <1>  -0.5700 
 33 C       -0.4630    -4.2560    -0.1860 C.3   1 <1>   0.1220 
 34 H       -0.2270    -4.9000     0.6730 H.spc     1 <1>   0.0000 
 35 C        2.3420    -3.9800     1.3530 C.ar  1 <1>  -0.1500 
 36 H        1.7080    -3.4240     2.0410 H.spc     1 <1>   0.1500 
@<TRIPOS>BOND
  1   1   2  1   
  2   2   3  ar  
  3   2  35  ar  
  4   3   4  1   
  5   3   5  ar  
  6   5   6  1   
  7   5   7  ar  
  8   7   8  1   
  9   7   9  ar  
 10   9  10  1   
 11   9  35  ar  
 12  10  11  1   
 13  10  12  1   
 14  10  33  1   
 15  12  13  1   
 16  12  15  2   
 17  13  14  3   
 18  15  16  1   
 19  15  20  1   
 20  16  17  1   
 21  16  18  1   
 22  16  19  1   
 23  20  21  2   
 24  21  22  1   
 25  21  33  1   
 26  22  23  1   
 27  22  24  1   
 28  22  25  1   
 29  25  26  1   
 30  25  27  1   
 31  25  28  1   
 32  28  29  1   
 33  28  30  1   
 34  28  31  1   
 35  31  32  2   
 36  31  33  1   
 37  33  34  1   
 38  35  36  1   
@<TRIPOS>SUBSTRUCTURE
  1 ****  10 GROUP 4 **** **** 0
