@<TRIPOS>MOLECULE
CHEM171
24 25 1 0 0 
SMALL
USER_CHARGES


@<TRIPOS>ATOM
  1 H        8.7960     0.7280    -1.7580 H.spc     1 <1>   0.1500 
  2 C        8.2080     0.6770    -0.8460 C.2   1 <1>  -0.3000 
  3 H        8.7400     0.4990     0.0830 H.spc     1 <1>   0.1500 
  4 C        6.8780     0.8310    -0.8810 C.2   1 <1>  -0.2880 
  5 H        6.3920     1.0020    -1.8400 H.spc     1 <1>   0.1500 
  6 C        5.9830     0.7690     0.3240 C.3   1 <1>   0.2820 
  7 H        5.2500    -0.0350     0.1860 H.spc     1 <1>   0.0000 
  8 H        6.5530     0.4870     1.2190 H.spc     1 <1>   0.0000 
  9 C        5.2780     2.0790     0.5820 C.ar  1 <1>  -0.1440 
 10 C        5.8860     3.0530     1.3870 C.ar  1 <1>  -0.1500 
 11 H        6.8600     2.8630     1.8330 H.spc     1 <1>   0.1500 
 12 C        5.2550     4.2780     1.6240 C.ar  1 <1>  -0.1500 
 13 H        5.7390     5.0220     2.2520 H.spc     1 <1>   0.1500 
 14 C        4.0100     4.5510     1.0540 C.ar  1 <1>  -0.1500 
 15 H        3.5370     5.5100     1.2500 H.spc     1 <1>   0.1500 
 16 C        3.3920     3.6000     0.2400 C.ar  1 <1>   0.0280 
 17 C        2.0990     3.8510    -0.3760 C.2   1 <1>  -0.1780 
 18 H        1.6010     4.7970    -0.1940 H.spc     1 <1>   0.1500 
 19 C        1.5440     2.9180    -1.1550 C.2   1 <1>  -0.1360 
 20 H        0.5830     3.0680    -1.6310 H.spc     1 <1>   0.1500 
 21 C        2.1970     1.6250    -1.4210 C.2   1 <1>   0.7060 
 22 O        1.6630     0.7920    -2.1430 O.2   1 <1>  -0.5700 
 23 O        3.4270     1.4090    -0.8180 O.3   1 <1>  -0.2320 
 24 C        4.0330     2.3800     0.0120 C.ar  1 <1>   0.0820 
@<TRIPOS>BOND
  1   1   2  1   
  2   2   3  1   
  3   2   4  2   
  4   4   5  1   
  5   4   6  1   
  6   6   7  1   
  7   6   8  1   
  8   6   9  1   
  9   9  10  ar  
 10   9  24  ar  
 11  10  11  1   
 12  10  12  ar  
 13  12  13  1   
 14  12  14  ar  
 15  14  15  1   
 16  14  16  ar  
 17  16  17  1   
 18  16  24  ar  
 19  17  18  1   
 20  17  19  2   
 21  19  20  1   
 22  19  21  1   
 23  21  22  2   
 24  21  23  1   
 25  23  24  1   
@<TRIPOS>SUBSTRUCTURE
  1 ****  24 GROUP 4 **** **** 0
