@<TRIPOS>MOLECULE
CHEM060
16 16 1 0 0 
SMALL
USER_CHARGES


@<TRIPOS>ATOM
  1 H        6.2880    -2.9780     0.0870 H.spc     1 <1>   0.4000 
  2 O        5.5700    -2.3250     0.0380 O.3   1 <1>  -0.6800 
  3 C        4.3560    -3.0670     0.1380 C.3   1 <1>   0.5360 
  4 H        4.3290    -3.5960     1.0950 H.spc     1 <1>   0.0000 
  5 H        4.2830    -3.7640    -0.7020 H.spc     1 <1>   0.0000 
  6 N        3.1950    -2.1880     0.0860 N.pl3 1 <1>   0.3140 
  7 N        1.9610    -2.7340     0.1740 N.2   1 <1>  -0.7070 
  8 C        1.1330    -1.6840     0.0960 C.2   1 <1>   0.1080 
  9 C       -0.3350    -1.8850     0.1510 C.3   1 <1>   0.1810 
 10 H       -0.8610    -0.9280     0.2210 H.spc     1 <1>   0.0000 
 11 H       -0.6830    -2.3990    -0.7510 H.spc     1 <1>   0.0000 
 12 H       -0.6110    -2.4870     1.0220 H.spc     1 <1>   0.0000 
 13 C        1.8410    -0.4690    -0.0430 C.2   1 <1>  -0.1500 
 14 H        1.4390     0.5300    -0.1300 H.spc     1 <1>   0.1500 
 15 C        3.1670    -0.8290    -0.0460 C.2   1 <1>  -0.3020 
 16 H        4.0750    -0.2490    -0.1290 H.spc     1 <1>   0.1500 
@<TRIPOS>BOND
  1   1   2  1   
  2   2   3  1   
  3   3   4  1   
  4   3   5  1   
  5   3   6  1   
  6   6   7  1   
  7   6  15  1   
  8   7   8  2   
  9   8   9  1   
 10   8  13  1   
 11   9  10  1   
 12   9  11  1   
 13   9  12  1   
 14  13  14  1   
 15  13  15  2   
 16  15  16  1   
@<TRIPOS>SUBSTRUCTURE
  1 ****   6 GROUP 4 **** **** 0
