@<TRIPOS>MOLECULE
CHEM016
25 26 1 0 0 
SMALL
USER_CHARGES


@<TRIPOS>ATOM
  1 H       -0.5530     0.3450     2.3610 H.spc      1 <1>   0.5000 
  2 O       -0.1450     0.3600     1.4670 O.3   1 <1>  -0.6500 
  3 C        0.9710     1.1060     1.6210 C.2   1 <1>   0.6590 
  4 O        1.2700     1.5150     2.7310 O.2   1 <1>  -0.5700 
  5 C        1.7560     1.3070     0.3100 C.3   1 <1>   0.4300 
  6 C        2.3050    -0.0570    -0.1450 C.3   1 <1>   0.0000 
  7 H        1.4960    -0.7170    -0.4810 H.spc      1 <1>   0.0000 
  8 H        2.8130    -0.5870     0.6680 H.spc      1 <1>   0.0000 
  9 H        3.0110     0.0520    -0.9760 H.spc      1 <1>   0.0000 
 10 N        2.8440     2.3000     0.5280 N.pl3 1 <1>  -0.5190 
 11 C        2.5690     3.6470     0.2400 C.2   1 <1>   0.4860 
 12 N        1.4370     4.1110    -0.1970 N.2   1 <1>  -0.6610 
 13 C        0.4210     3.2160    -0.3900 C.2   1 <1>   0.7200 
 14 O       -0.7650     3.5160    -0.2970 O.2   1 <1>  -0.5700 
 15 C        0.8320     1.8300    -0.7860 C.3   1 <1>   0.0610 
 16 H        1.3380     1.8890    -1.7580 H.spc      1 <1>   0.0000 
 17 H       -0.0620     1.2110    -0.9160 H.spc      1 <1>   0.0000 
 18 C        3.6440     4.6760     0.4390 C.2   1 <1>  -0.1360 
 19 H        3.4200     5.7060     0.1920 H.spc      1 <1>   0.1500 
 20 C        4.8290     4.2700     0.9200 C.2   1 <1>  -0.1500 
 21 H        5.6280     4.9870     1.0820 H.spc      1 <1>   0.1500 
 22 C        5.0700     2.8830     1.2520 C.2   1 <1>   0.1400 
 23 CL       6.5970     2.4380     1.9040 Cl    1 <1>  -0.1400 
 24 C        4.1000     1.9760     1.0530 C.2   1 <1>  -0.0500 
 25 H        4.2530     0.9370     1.3200 H.spc      1 <1>   0.1500 
@<TRIPOS>BOND
  1   1   2  1   
  2   2   3  1   
  3   3   4  2   
  4   3   5  1   
  5   5   6  1   
  6   5  10  1   
  7   5  15  1   
  8   6   7  1   
  9   6   8  1   
 10   6   9  1   
 11  10  11  1   
 12  10  24  1   
 13  11  12  2   
 14  11  18  1   
 15  12  13  1   
 16  13  14  2   
 17  13  15  1   
 18  15  16  1   
 19  15  17  1   
 20  18  19  1   
 21  18  20  2   
 22  20  21  1   
 23  20  22  1   
 24  22  23  1   
 25  22  24  2   
 26  24  25  1   
@<TRIPOS>SUBSTRUCTURE
  1 ****  10 GROUP 4 **** **** 0
