@<TRIPOS>MOLECULE
CHEM129
41 43 1 0 0 
SMALL
USER_CHARGES


@<TRIPOS>ATOM
  1 H       -0.2020    -3.1850    -1.4490 H.spc     1 <1>   0.4000 
  2 O        0.2680    -2.9850    -0.6210 O.3   1 <1>  -0.6800 
  3 C        1.6610    -3.0230    -0.9130 C.3   1 <1>   0.2800 
  4 H        1.8780    -2.2490    -1.6560 H.spc     1 <1>   0.0000 
  5 H        1.8990    -3.9980    -1.3520 H.spc     1 <1>   0.0000 
  6 C        2.4690    -2.7980     0.3690 C.3   1 <1>   0.3690 
  7 H        2.2390    -3.5970     1.0860 H.spc     1 <1>   0.0000 
  8 H        2.1320    -1.8870     0.8780 H.spc     1 <1>   0.0000 
  9 N        3.9190    -2.7550     0.0930 N.pl3 1 <1>  -0.8380 
 10 C        4.6380    -1.5560    -0.1860 C.2   1 <1>   0.0690 
 11 C        4.0150    -0.3730    -0.3830 C.2   1 <1>  -0.1360 
 12 H        2.9430    -0.2430    -0.3540 H.spc     1 <1>   0.1500 
 13 C        4.8460     0.8330    -0.6730 C.2   1 <1>   0.3750 
 14 C        4.1160     2.1370    -0.8880 C.3   1 <1>   0.0610 
 15 H        4.3180     2.4990    -1.9010 H.spc     1 <1>   0.0000 
 16 H        4.4780     2.8760    -0.1670 H.spc     1 <1>   0.0000 
 17 H        3.0370     2.0230    -0.7630 H.spc     1 <1>   0.0000 
 18 N        6.1390     0.8470    -0.7570 N.2   1 <1>  -0.5760 
 19 C        6.7680    -0.3440    -0.5560 C.2   1 <1>   0.3120 
 20 N        8.0570    -0.5940    -0.5860 N.2   1 <1>  -0.5650 
 21 C        8.1460    -1.9300    -0.3140 C.2   1 <1>   0.4620 
 22 C        9.4400    -2.6030    -0.2560 C.ar  1 <1>   0.0540 
 23 C        9.5300    -3.9670     0.0570 C.ar  1 <1>  -0.1500 
 24 H        8.6300    -4.5420     0.2650 H.spc     1 <1>   0.1500 
 25 C       10.7730    -4.6080     0.1100 C.ar  1 <1>  -0.1500 
 26 H       10.8130    -5.6650     0.3630 H.spc     1 <1>   0.1500 
 27 C       11.9480    -3.8980    -0.1590 C.ar  1 <1>  -0.1440 
 28 C       13.2850    -4.5740    -0.0710 C.3   1 <1>   0.1440 
 29 H       13.1990    -5.6430    -0.2950 H.spc     1 <1>   0.0000 
 30 H       13.6980    -4.4570     0.9350 H.spc     1 <1>   0.0000 
 31 H       13.9850    -4.1460    -0.7960 H.spc     1 <1>   0.0000 
 32 C       11.8650    -2.5340    -0.4560 C.ar  1 <1>  -0.1500 
 33 H       12.7650    -1.9560    -0.6510 H.spc     1 <1>   0.1500 
 34 C       10.6220    -1.8940    -0.5090 C.ar  1 <1>  -0.1500 
 35 H       10.5830    -0.8330    -0.7480 H.spc     1 <1>   0.1500 
 36 N        6.9720    -2.5390    -0.1180 N.2   1 <1>  -0.7070 
 37 N        6.0680    -1.5300    -0.2740 N.pl3 1 <1>   0.6010 
 38 C        4.5700    -4.0720     0.1360 C.3   1 <1>   0.3690 
 39 H        3.8370    -4.8840     0.2080 H.spc     1 <1>   0.0000 
 40 H        5.1400    -4.2550    -0.7810 H.spc     1 <1>   0.0000 
 41 H        5.2220    -4.1500     1.0120 H.spc     1 <1>   0.0000 
@<TRIPOS>BOND
  1   1   2  1   
  2   2   3  1   
  3   3   4  1   
  4   3   5  1   
  5   3   6  1   
  6   6   7  1   
  7   6   8  1   
  8   6   9  1   
  9   9  10  1   
 10   9  38  1   
 11  10  11  2   
 12  10  37  1   
 13  11  12  1   
 14  11  13  1   
 15  13  14  1   
 16  13  18  2   
 17  14  15  1   
 18  14  16  1   
 19  14  17  1   
 20  18  19  1   
 21  19  20  2   
 22  19  37  1   
 23  20  21  1   
 24  21  22  1   
 25  21  36  2   
 26  22  23  ar  
 27  22  34  ar  
 28  23  24  1   
 29  23  25  ar  
 30  25  26  1   
 31  25  27  ar  
 32  27  28  1   
 33  27  32  ar  
 34  28  29  1   
 35  28  30  1   
 36  28  31  1   
 37  32  33  1   
 38  32  34  ar  
 39  34  35  1   
 40  36  37  1   
 41  38  39  1   
 42  38  40  1   
 43  38  41  1   
@<TRIPOS>SUBSTRUCTURE
  1 ****  36 GROUP 4 **** **** 0
