@<TRIPOS>MOLECULE
CHEM164
24 24 1 0 0 
SMALL
USER_CHARGES


@<TRIPOS>ATOM
  1 H       -0.0110     1.5750     0.0730 H.spc     1 <1>   0.4500 
  2 O        0.3170     0.6620     0.1250 O.3   1 <1>  -0.5320 
  3 C        1.6790     0.6830     0.1010 C.ar  1 <1>   0.0820 
  4 C        2.3460    -0.5350     0.1680 C.ar  1 <1>  -0.1500 
  5 H        1.7770    -1.4590     0.2380 H.spc     1 <1>   0.1500 
  6 C        3.7430    -0.5680     0.1460 C.ar  1 <1>  -0.1500 
  7 H        4.2310    -1.5360     0.2020 H.spc     1 <1>   0.1500 
  8 C        4.4720     0.6250     0.0570 C.ar  1 <1>   0.0860 
  9 C        5.9670     0.6500     0.0270 C.2   1 <1>   0.4230 
 10 O        6.5460     1.7340    -0.0280 O.2   1 <1>  -0.5700 
 11 C        6.7180    -0.6710     0.0690 C.3   1 <1>   0.0610 
 12 H        6.4700    -1.1830     1.0050 H.spc     1 <1>   0.0000 
 13 H        6.3910    -1.2840    -0.7780 H.spc     1 <1>   0.0000 
 14 C        8.2320    -0.4760    -0.0120 C.3   1 <1>   0.0000 
 15 H        8.4920     0.0630    -0.9310 H.spc     1 <1>   0.0000 
 16 H        8.5740     0.1440     0.8260 H.spc     1 <1>   0.0000 
 17 C        8.9680    -1.8050     0.0150 C.3   1 <1>   0.0000 
 18 H        8.6740    -2.4330    -0.8330 H.spc     1 <1>   0.0000 
 19 H        8.7550    -2.3530     0.9390 H.spc     1 <1>   0.0000 
 20 H       10.0480    -1.6420    -0.0420 H.spc     1 <1>   0.0000 
 21 C        3.7820     1.8460    -0.0090 C.ar  1 <1>  -0.1500 
 22 H        4.3340     2.7830    -0.0790 H.spc     1 <1>   0.1500 
 23 C        2.3850     1.8770     0.0130 C.ar  1 <1>  -0.1500 
 24 H        1.8750     2.8340    -0.0400 H.spc     1 <1>   0.1500 
@<TRIPOS>BOND
  1   1   2  1   
  2   2   3  1   
  3   3   4  ar  
  4   3  23  ar  
  5   4   5  1   
  6   4   6  ar  
  7   6   7  1   
  8   6   8  ar  
  9   8   9  1   
 10   8  21  ar  
 11   9  10  2   
 12   9  11  1   
 13  11  12  1   
 14  11  13  1   
 15  11  14  1   
 16  14  15  1   
 17  14  16  1   
 18  14  17  1   
 19  17  18  1   
 20  17  19  1   
 21  17  20  1   
 22  21  22  1   
 23  21  23  ar  
 24  23  24  1   
@<TRIPOS>SUBSTRUCTURE
  1 ****   8 GROUP 4 **** **** 0
