@<TRIPOS>MOLECULE
CHEM078
15 15 1 0 0 
SMALL
USER_CHARGES


@<TRIPOS>ATOM
  1 H       -0.9200    -1.0370     0.2320 H.spc     1 <1>   0.1500 
  2 C       -0.6020    -0.0120     0.1070 C.2   1 <1>  -0.1500 
  3 C       -1.4140     1.1380    -0.0220 C.2   1 <1>   0.1080 
  4 C       -2.8940     1.2180    -0.0130 C.3   1 <1>   0.1810 
  5 H       -3.2540     1.8550    -0.8270 H.spc     1 <1>   0.0000 
  6 H       -3.2470     1.6350     0.9360 H.spc     1 <1>   0.0000 
  7 H       -3.3420     0.2270    -0.1380 H.spc     1 <1>   0.0000 
  8 N       -0.6790     2.2470    -0.1570 N.2   1 <1>  -0.7070 
  9 N        0.5880     1.8060    -0.1180 N.pl3 1 <1>   0.3000 
 10 H        1.3340     2.4870    -0.2060 H.spc     1 <1>   0.2700 
 11 C        0.6930     0.4520     0.0400 C.2   1 <1>  -0.3320 
 12 C        1.9980    -0.2380     0.1110 C.3   1 <1>   0.1800 
 13 H        1.8660    -1.3230     0.1750 H.spc     1 <1>   0.0000 
 14 H        2.5990    -0.0230    -0.7790 H.spc     1 <1>   0.0000 
 15 H        2.5580     0.0880     0.9930 H.spc     1 <1>   0.0000 
@<TRIPOS>BOND
  1   1   2  1   
  2   2   3  1   
  3   2  11  2   
  4   3   4  1   
  5   3   8  2   
  6   4   5  1   
  7   4   6  1   
  8   4   7  1   
  9   8   9  1   
 10   9  10  1   
 11   9  11  1   
 12  11  12  1   
 13  12  13  1   
 14  12  14  1   
 15  12  15  1   
@<TRIPOS>SUBSTRUCTURE
  1 ****   2 GROUP 4 **** **** 0
