@<TRIPOS>MOLECULE
CHEM024
24 25 1 0 0 
SMALL
USER_CHARGES


@<TRIPOS>ATOM
  1 H        2.2990     1.6790     0.0510 H.spc      1 <1>   0.1500 
  2 C        1.3540     2.2170     0.0440 C.ar  1 <1>  -0.1500 
  3 C        0.2290     1.6620     0.6540 C.ar  1 <1>  -0.1500 
  4 H        0.3030     0.6930     1.1420 H.spc      1 <1>   0.1500 
  5 C       -0.9850     2.3530     0.6500 C.ar  1 <1>  -0.1500 
  6 H       -1.8330     1.9100     1.1630 H.spc      1 <1>   0.1500 
  7 C       -1.0790     3.6040     0.0250 C.ar  1 <1>   0.0860 
  8 C       -2.3510     4.3820    -0.0060 C.2   1 <1>   0.3490 
  9 N       -2.2980     5.6760     0.0230 N.2   1 <1>  -0.6610 
 10 C       -3.4620     6.3970     0.0030 C.2   1 <1>   0.8410 
 11 O       -3.4920     7.6230     0.0370 O.2   1 <1>  -0.5700 
 12 N       -4.6440     5.7050    -0.0610 N.am  1 <1>  -0.5390 
 13 H       -5.4730     6.2890    -0.0700 H.spc      1 <1>   0.3700 
 14 C       -4.7410     4.3320    -0.1150 C.2   1 <1>  -0.0290 
 15 C       -6.1150     3.7170    -0.2070 C.3   1 <1>   1.1580 
 16 F       -6.8810     4.0580     0.8600 F     1 <1>  -0.3400 
 17 F       -6.7740     4.1390    -1.3140 F     1 <1>  -0.3400 
 18 F       -6.0810     2.3610    -0.2550 F     1 <1>  -0.3400 
 19 C       -3.6140     3.6080    -0.0950 C.2   1 <1>  -0.1360 
 20 H       -3.6090     2.5280    -0.1680 H.spc      1 <1>   0.1500 
 21 C        0.0600     4.1630    -0.5700 C.ar  1 <1>  -0.1500 
 22 H        0.0100     5.1420    -1.0420 H.spc      1 <1>   0.1500 
 23 C        1.2710     3.4680    -0.5640 C.ar  1 <1>  -0.1500 
 24 H        2.1500     3.9070    -1.0300 H.spc      1 <1>   0.1500 
@<TRIPOS>BOND
  1   1   2  1   
  2   2   3  ar  
  3   2  23  ar  
  4   3   4  1   
  5   3   5  ar  
  6   5   6  1   
  7   5   7  ar  
  8   7   8  1   
  9   7  21  ar  
 10   8   9  2   
 11   8  19  1   
 12   9  10  1   
 13  10  11  2   
 14  10  12  am  
 15  12  13  1   
 16  12  14  1   
 17  14  15  1   
 18  14  19  2   
 19  15  16  1   
 20  15  17  1   
 21  15  18  1   
 22  19  20  1   
 23  21  22  1   
 24  21  23  ar  
 25  23  24  1   
@<TRIPOS>SUBSTRUCTURE
  1 ****   8 GROUP 4 **** **** 0
