@<TRIPOS>MOLECULE
CHEM013
17 18 1 0 0 
SMALL
USER_CHARGES


@<TRIPOS>ATOM
  1 H       -4.1500     2.8820    -1.0640 H.spc      1 <1>   0.1500 
  2 C       -3.3020     2.3160    -0.7160 C.2   1 <1>  -0.1670 
  3 C       -2.0230     2.7200    -0.6730 C.2   1 <1>   0.0820 
  4 BR      -1.4670     4.3970    -1.2310 Br    1 <1>  -0.1100 
  5 C       -1.1150     1.6950    -0.1400 C.ar  1 <1>   0.0280 
  6 C        0.2590     1.7490     0.0540 C.ar  1 <1>  -0.1500 
  7 H        0.8340     2.6370    -0.1960 H.spc      1 <1>   0.1500 
  8 C        0.9170     0.6300     0.5850 C.ar  1 <1>  -0.1500 
  9 H        1.9940     0.6630     0.7390 H.spc      1 <1>   0.1500 
 10 C        0.2070    -0.5350     0.9200 C.ar  1 <1>  -0.1500 
 11 H        0.7390    -1.3910     1.3310 H.spc      1 <1>   0.1500 
 12 C       -1.1720    -0.5990     0.7310 C.ar  1 <1>  -0.1500 
 13 H       -1.7390    -1.4890     0.9840 H.spc      1 <1>   0.1500 
 14 C       -1.7860     0.5240     0.2050 C.ar  1 <1>  -0.0090 
 15 S       -3.4880     0.7010    -0.1270 S.o2  1 <1>   1.3260 
 16 O       -4.1940     0.7090     1.1370 O.2   1 <1>  -0.6500 
 17 O       -3.8290    -0.1900    -1.2140 O.2   1 <1>  -0.6500 
@<TRIPOS>BOND
  1   1   2  1   
  2   2   3  2   
  3   2  15  1   
  4   3   4  1   
  5   3   5  1   
  6   5   6  ar  
  7   5  14  ar  
  8   6   7  1   
  9   6   8  ar  
 10   8   9  1   
 11   8  10  ar  
 12  10  11  1   
 13  10  12  ar  
 14  12  13  1   
 15  12  14  ar  
 16  14  15  1   
 17  15  16  2   
 18  15  17  2   
@<TRIPOS>SUBSTRUCTURE
  1 ****  14 GROUP 4 **** **** 0
