@<TRIPOS>MOLECULE
CHEM081
30 29 1 0 0 
SMALL
USER_CHARGES


@<TRIPOS>ATOM
  1 H       -2.1700    -0.4320    -2.1220 H.spc     1 <1>   0.1500 
  2 C       -2.9700    -0.0140    -1.5110 C.2   1 <1>  -0.2880 
  3 C       -2.6430     1.0010    -0.6810 C.2   1 <1>   0.0330 
  4 N       -1.3430     1.4580    -0.6830 N.2   1 <1>  -0.6210 
  5 C       -0.3900     0.8000    -0.0700 C.2   1 <1>   0.4390 
  6 N        0.9130     1.2920    -0.1240 N.pl3 1 <1>  -0.7880 
  7 C        2.0640     0.5810     0.4050 C.3   1 <1>   0.3690 
  8 H        2.0940     0.6680     1.4960 H.spc     1 <1>   0.0000 
  9 H        2.0310    -0.4800     0.1340 H.spc     1 <1>   0.0000 
 10 H        3.0060     0.9750     0.0100 H.spc     1 <1>   0.0000 
 11 C        1.1750     2.5850    -0.7470 C.3   1 <1>   0.3690 
 12 H        2.1880     2.9450    -0.5340 H.spc     1 <1>   0.0000 
 13 H        0.4820     3.3460    -0.3720 H.spc     1 <1>   0.0000 
 14 H        1.0650     2.5090    -1.8340 H.spc     1 <1>   0.0000 
 15 C       -0.6270    -0.5070     0.6810 C.3   1 <1>   0.0610 
 16 H       -1.6640    -0.6390     0.9900 H.spc     1 <1>   0.0000 
 17 H       -0.3440    -1.3420     0.0330 H.spc     1 <1>   0.0000 
 18 H       -0.0190    -0.5390     1.5890 H.spc     1 <1>   0.0000 
 19 C       -3.6140     1.8060     0.1850 C.3   1 <1>   0.3380 
 20 H       -3.0750     2.6900     0.5540 H.spc     1 <1>   0.0000 
 21 C       -4.7570     2.3210    -0.5940 C.1   1 <1>   0.3570 
 22 N       -5.6780     2.7260    -1.1760 N.1   1 <1>  -0.5570 
 23 C       -4.0850     1.0390     1.4200 C.3   1 <1>   0.0000 
 24 H       -3.2380     0.7580     2.0540 H.spc     1 <1>   0.0000 
 25 H       -4.7590     1.6560     2.0270 H.spc     1 <1>   0.0000 
 26 H       -4.6290     0.1250     1.1610 H.spc     1 <1>   0.0000 
 27 C       -4.2950    -0.6670    -1.7320 C.3   1 <1>   0.1380 
 28 H       -4.1940    -1.7490    -1.6000 H.spc     1 <1>   0.0000 
 29 H       -5.0730    -0.3280    -1.0470 H.spc     1 <1>   0.0000 
 30 H       -4.6340    -0.4810    -2.7560 H.spc     1 <1>   0.0000 
@<TRIPOS>BOND
  1   1   2  1   
  2   2   3  2   
  3   2  27  1   
  4   3   4  1   
  5   3  19  1   
  6   4   5  2   
  7   5   6  1   
  8   5  15  1   
  9   6   7  1   
 10   6  11  1   
 11   7   8  1   
 12   7   9  1   
 13   7  10  1   
 14  11  12  1   
 15  11  13  1   
 16  11  14  1   
 17  15  16  1   
 18  15  17  1   
 19  15  18  1   
 20  19  20  1   
 21  19  21  1   
 22  19  23  1   
 23  21  22  3   
 24  23  24  1   
 25  23  25  1   
 26  23  26  1   
 27  27  28  1   
 28  27  29  1   
 29  27  30  1   
@<TRIPOS>SUBSTRUCTURE
  1 ****   3 GROUP 4 **** **** 0
