@<TRIPOS>MOLECULE
CHEM177
34 35 1 0 0 
SMALL
USER_CHARGES


@<TRIPOS>ATOM
  1 H        1.0620     3.0530     2.2760 H.spc     1 <1>   0.1500 
  2 C        0.6710     2.9480     1.2730 C.2   1 <1>  -0.0100 
  3 O       -0.6790     3.0290     1.1560 O.3   1 <1>  -0.2800 
  4 C       -0.9750     2.8630    -0.1670 C.2   1 <1>  -0.0400 
  5 C       -2.4330     2.9000    -0.5590 C.3   1 <1>   0.3180 
  6 H       -2.4590     2.9420    -1.6590 H.spc     1 <1>   0.0000 
  7 C       -3.2090     1.6690    -0.1740 C.2   1 <1>  -0.1240 
  8 C       -2.5020     0.3780    -0.3240 C.2   1 <1>   0.6160 
  9 O       -2.0860    -0.0170    -1.4050 O.2   1 <1>  -0.5700 
 10 N       -2.3110    -0.3080     0.8340 N.am  1 <1>  -0.8000 
 11 H       -1.8260    -1.1930     0.7870 H.spc     1 <1>   0.3700 
 12 H       -2.6220     0.0340     1.7330 H.spc     1 <1>   0.3700 
 13 C       -4.5030     1.7240     0.2000 C.2   1 <1>   0.0330 
 14 C       -5.3380     0.4960     0.4840 C.3   1 <1>   0.1380 
 15 H       -5.4350     0.3540     1.5650 H.spc     1 <1>   0.0000 
 16 H       -6.3440     0.6190     0.0660 H.spc     1 <1>   0.0000 
 17 H       -4.9320    -0.4190     0.0450 H.spc     1 <1>   0.0000 
 18 N       -5.2050     2.9040     0.2630 N.2   1 <1>  -0.6210 
 19 C       -4.5850     4.0380     0.1430 C.2   1 <1>   0.3280 
 20 C       -5.4220     5.2920     0.2590 C.3   1 <1>   0.0610 
 21 H       -4.9130     6.0200     0.8970 H.spc     1 <1>   0.0000 
 22 H       -5.5830     5.7210    -0.7330 H.spc     1 <1>   0.0000 
 23 H       -6.3960     5.0610     0.7000 H.spc     1 <1>   0.0000 
 24 C       -3.0830     4.1800    -0.0010 C.3   1 <1>   0.1220 
 25 H       -2.7360     4.3860     1.0220 H.spc     1 <1>   0.0000 
 26 C       -2.6660     5.3440    -0.8780 C.2   1 <1>   0.5690 
 27 O       -3.2510     5.6730    -1.9030 O.2   1 <1>  -0.5700 
 28 N       -1.5560     6.0240    -0.4660 N.am  1 <1>  -0.8000 
 29 H       -1.0170     5.7680     0.3520 H.spc     1 <1>   0.3700 
 30 H       -1.2500     6.8170    -1.0170 H.spc     1 <1>   0.3700 
 31 C        0.1870     2.6810    -0.8890 C.2   1 <1>  -0.1500 
 32 H        0.2520     2.5110    -1.9550 H.spc     1 <1>   0.1500 
 33 C        1.2500     2.7380     0.0440 C.2   1 <1>  -0.1500 
 34 H        2.3070     2.6270    -0.1540 H.spc     1 <1>   0.1500 
@<TRIPOS>BOND
  1   1   2  1   
  2   2   3  1   
  3   2  33  2   
  4   3   4  1   
  5   4   5  1   
  6   4  31  2   
  7   5   6  1   
  8   5   7  1   
  9   5  24  1   
 10   7   8  1   
 11   7  13  2   
 12   8   9  2   
 13   8  10  am  
 14  10  11  1   
 15  10  12  1   
 16  13  14  1   
 17  13  18  1   
 18  14  15  1   
 19  14  16  1   
 20  14  17  1   
 21  18  19  2   
 22  19  20  1   
 23  19  24  1   
 24  20  21  1   
 25  20  22  1   
 26  20  23  1   
 27  24  25  1   
 28  24  26  1   
 29  26  27  2   
 30  26  28  am  
 31  28  29  1   
 32  28  30  1   
 33  31  32  1   
 34  31  33  1   
 35  33  34  1   
@<TRIPOS>SUBSTRUCTURE
  1 ****   5 GROUP 4 **** **** 0
