@<TRIPOS>MOLECULE
CHEM010
27 28 1 0 0 
SMALL
USER_CHARGES


@<TRIPOS>ATOM
  1 H        0.8370    -0.6690     0.8690 H.spc      1 <1>   0.0000 
  2 C        0.4930    -0.0570     0.0280 C.3   1 <1>   0.0000 
  3 H       -0.5980     0.0080     0.0620 H.spc      1 <1>   0.0000 
  4 H        0.7880    -0.5790    -0.8880 H.spc      1 <1>   0.0000 
  5 C        1.1200     1.3240     0.0820 C.3   1 <1>   0.2800 
  6 H        0.7720     1.9120    -0.7770 H.spc      1 <1>   0.0000 
  7 H        0.8190     1.8200     1.0130 H.spc      1 <1>   0.0000 
  8 O        2.5370     1.1690     0.0360 O.3   1 <1>  -0.3570 
  9 C        3.1700     2.2870     0.0880 C.2   1 <1>   0.0060 
 10 C        4.5040     2.5930     0.0820 C.2   1 <1>   0.0270 
 11 N        5.6970     2.0510     0.0400 N.pl3 1 <1>  -0.8360 
 12 C        5.9230     0.6050     0.0210 C.3   1 <1>   0.3690 
 13 H        5.3260     0.0790     0.7730 H.spc      1 <1>   0.0000 
 14 H        5.6810     0.2050    -0.9710 H.spc      1 <1>   0.0000 
 15 C        7.4140     0.4610     0.3120 C.3   1 <1>   0.0000 
 16 H        7.5890     0.4680     1.3940 H.spc      1 <1>   0.0000 
 17 H        7.8330    -0.4620    -0.0980 H.spc      1 <1>   0.0000 
 18 C        8.0040     1.7110    -0.3170 C.3   1 <1>   0.0000 
 19 H        8.0860     1.5800    -1.4030 H.spc      1 <1>   0.0000 
 20 H        8.9950     1.9580     0.0740 H.spc      1 <1>   0.0000 
 21 C        6.9660     2.7830     0.0040 C.3   1 <1>   0.3690 
 22 H        7.1650     3.2320     0.9840 H.spc      1 <1>   0.0000 
 23 H        6.9740     3.5680    -0.7600 H.spc      1 <1>   0.0000 
 24 C        4.2540     4.0440     0.1840 C.2   1 <1>   0.6410 
 25 O        4.8570     5.0870     0.2490 O.2   1 <1>  -0.5700 
 26 C        2.8060     3.7220     0.1760 C.2   1 <1>   0.6410 
 27 O        1.8130     4.4050     0.2270 O.2   1 <1>  -0.5700 
@<TRIPOS>BOND
  1   1   2  1   
  2   2   3  1   
  3   2   4  1   
  4   2   5  1   
  5   5   6  1   
  6   5   7  1   
  7   5   8  1   
  8   8   9  1   
  9   9  10  2   
 10   9  26  1   
 11  10  11  1   
 12  10  24  1   
 13  11  12  1   
 14  11  21  1   
 15  12  13  1   
 16  12  14  1   
 17  12  15  1   
 18  15  16  1   
 19  15  17  1   
 20  15  18  1   
 21  18  19  1   
 22  18  20  1   
 23  18  21  1   
 24  21  22  1   
 25  21  23  1   
 26  24  25  2   
 27  24  26  1   
 28  26  27  2   
@<TRIPOS>SUBSTRUCTURE
  1 ****  10 GROUP 4 **** **** 0
