@<TRIPOS>MOLECULE
CHEM137
25 26 1 0 0 
SMALL
USER_CHARGES


@<TRIPOS>ATOM
  1 H        3.2580     4.0220     0.4320 H.spc     1 <1>   0.0000 
  2 C        3.6420     3.5300    -0.4660 C.3   1 <1>   0.0610 
  3 H        4.6480     3.9100    -0.6690 H.spc     1 <1>   0.0000 
  4 H        3.0020     3.7670    -1.3190 H.spc     1 <1>   0.0000 
  5 C        3.6740     2.0380    -0.2490 C.2   1 <1>   0.3280 
  6 N        4.8060     1.4360    -0.4110 N.2   1 <1>  -0.6380 
  7 S        4.8930    -0.1470    -0.0640 S.o2  1 <1>   1.6760 
  8 O        5.9380    -0.7220    -0.8840 O.2   1 <1>  -0.6500 
  9 O        4.9640    -0.2600     1.3800 O.2   1 <1>  -0.6500 
 10 N        3.4840    -0.8080    -0.5220 N.2   1 <1>  -0.6380 
 11 C        2.4100    -0.1130    -0.3500 C.2   1 <1>   0.3280 
 12 C        1.0810    -0.7390    -0.7130 C.3   1 <1>   0.0610 
 13 H        0.8320    -0.4600    -1.7420 H.spc     1 <1>   0.0000 
 14 H        1.1670    -1.8300    -0.6680 H.spc     1 <1>   0.0000 
 15 C        0.0190    -0.2540     0.2590 C.3   1 <1>   0.0000 
 16 H        0.2990    -0.5560     1.2770 H.spc     1 <1>   0.0000 
 17 H       -0.9430    -0.7310     0.0450 H.spc     1 <1>   0.0000 
 18 C       -0.1380     1.2670     0.2240 C.3   1 <1>   0.0000 
 19 H       -0.9670     1.5380    -0.4400 H.spc     1 <1>   0.0000 
 20 H       -0.4220     1.6150     1.2240 H.spc     1 <1>   0.0000 
 21 C        1.1210     2.0050    -0.2420 C.3   1 <1>   0.0000 
 22 H        1.0780     3.0330     0.1350 H.spc     1 <1>   0.0000 
 23 H        1.1010     2.0800    -1.3380 H.spc     1 <1>   0.0000 
 24 C        2.4130     1.3070     0.1960 C.3   1 <1>   0.1220 
 25 H        2.4400     1.2480     1.2920 H.spc     1 <1>   0.0000 
@<TRIPOS>BOND
  1   1   2  1   
  2   2   3  1   
  3   2   4  1   
  4   2   5  1   
  5   5   6  2   
  6   5  24  1   
  7   6   7  1   
  8   7   8  2   
  9   7   9  2   
 10   7  10  1   
 11  10  11  2   
 12  11  12  1   
 13  11  24  1   
 14  12  13  1   
 15  12  14  1   
 16  12  15  1   
 17  15  16  1   
 18  15  17  1   
 19  15  18  1   
 20  18  19  1   
 21  18  20  1   
 22  18  21  1   
 23  21  22  1   
 24  21  23  1   
 25  21  24  1   
 26  24  25  1   
@<TRIPOS>SUBSTRUCTURE
  1 ****  24 GROUP 4 **** **** 0
