@<TRIPOS>MOLECULE
CHEM091
33 34 1 0 0 
SMALL
USER_CHARGES


@<TRIPOS>ATOM
  1 H       -5.6450     4.1310     1.7730 H.spc     1 <1>   0.3600 
  2 N       -5.2600     3.2330     1.4740 N.3   1 <1>  -0.5180 
  3 N       -4.6470     3.3970     0.1940 N.3   1 <1>  -0.4280 
  4 C       -3.4730     2.5190     0.1180 C.3   1 <1>   0.2700 
  5 H       -3.5240     1.9300    -0.8060 H.spc     1 <1>   0.0000 
  6 H       -3.3940     1.8100     0.9550 H.spc     1 <1>   0.0000 
  7 C       -2.2070     3.3810     0.0820 C.3   1 <1>   0.0000 
  8 H       -2.1520     3.9990     0.9880 H.spc     1 <1>   0.0000 
  9 H       -2.2500     4.0650    -0.7760 H.spc     1 <1>   0.0000 
 10 C       -0.9590     2.4990    -0.0200 C.3   1 <1>   0.2700 
 11 H       -1.0550     1.8530    -0.9040 H.spc     1 <1>   0.0000 
 12 H       -0.9170     1.8460     0.8600 H.spc     1 <1>   0.0000 
 13 N        0.2330     3.3560    -0.0390 N.3   1 <1>  -0.4280 
 14 N        0.8330     3.2780    -1.3330 N.3   1 <1>  -0.5180 
 15 H        1.2360     4.1880    -1.5660 H.spc     1 <1>   0.3600 
 16 C        1.5270     2.6680    -0.1910 C.3   1 <1>   0.1260 
 17 C        1.6370     1.1670    -0.1690 C.3   1 <1>   0.0950 
 18 H        1.5260     0.7940     0.8540 H.spc     1 <1>   0.0000 
 19 H        0.8930     0.6680    -0.7990 H.spc     1 <1>   0.0000 
 20 H        2.6210     0.8540    -0.5350 H.spc     1 <1>   0.0000 
 21 C        2.7230     3.3890     0.3770 C.3   1 <1>   0.0950 
 22 H        3.6220     3.1520    -0.2030 H.spc     1 <1>   0.0000 
 23 H        2.8930     3.0800     1.4140 H.spc     1 <1>   0.0000 
 24 H        2.5980     4.4780     0.3690 H.spc     1 <1>   0.0000 
 25 C       -5.9570     2.7280     0.2830 C.3   1 <1>   0.1260 
 26 C       -6.1000     1.2360     0.1460 C.3   1 <1>   0.0950 
 27 H       -5.9990     0.9410    -0.9040 H.spc     1 <1>   0.0000 
 28 H       -7.0900     0.9180     0.4900 H.spc     1 <1>   0.0000 
 29 H       -5.3660     0.6740     0.7320 H.spc     1 <1>   0.0000 
 30 C       -7.1320     3.5180    -0.2350 C.3   1 <1>   0.0950 
 31 H       -6.9790     4.6000    -0.1530 H.spc     1 <1>   0.0000 
 32 H       -8.0380     3.2650     0.3270 H.spc     1 <1>   0.0000 
 33 H       -7.3080     3.2850    -1.2900 H.spc     1 <1>   0.0000 
@<TRIPOS>BOND
  1   1   2  1   
  2   2   3  1   
  3   2  25  1   
  4   3   4  1   
  5   3  25  1   
  6   4   5  1   
  7   4   6  1   
  8   4   7  1   
  9   7   8  1   
 10   7   9  1   
 11   7  10  1   
 12  10  11  1   
 13  10  12  1   
 14  10  13  1   
 15  13  14  1   
 16  13  16  1   
 17  14  15  1   
 18  14  16  1   
 19  16  17  1   
 20  16  21  1   
 21  17  18  1   
 22  17  19  1   
 23  17  20  1   
 24  21  22  1   
 25  21  23  1   
 26  21  24  1   
 27  25  26  1   
 28  25  30  1   
 29  26  27  1   
 30  26  28  1   
 31  26  29  1   
 32  30  31  1   
 33  30  32  1   
 34  30  33  1   
@<TRIPOS>SUBSTRUCTURE
  1 ****   7 GROUP 4 **** **** 0
