@<TRIPOS>MOLECULE
CHEM017
27 28 1 0 0 
SMALL
USER_CHARGES


@<TRIPOS>ATOM
  1 H       -0.9690     4.6270    -1.4360 H.spc      1 <1>   0.1500 
  2 C       -0.9920     3.8120    -0.7160 C.ar  1 <1>  -0.1500 
  3 C       -2.0980     2.9550    -0.6940 C.ar  1 <1>  -0.1500 
  4 H       -2.9080     3.1220    -1.3980 H.spc      1 <1>   0.1500 
  5 C       -2.1670     1.9020     0.2200 C.ar  1 <1>   0.1000 
  6 N       -3.2600     1.0580     0.2410 N.pl3 1 <1>  -0.9000 
  7 H       -4.0260     1.1880    -0.4040 H.spc      1 <1>   0.4000 
  8 H       -3.3100     0.2960     0.9030 H.spc      1 <1>   0.4000 
  9 C       -1.1100     1.7220     1.1150 C.ar  1 <1>  -0.1500 
 10 H       -1.1390     0.9130     1.8390 H.spc      1 <1>   0.1500 
 11 C       -0.0030     2.5780     1.0980 C.ar  1 <1>  -0.1500 
 12 H        0.8000     2.4150     1.8120 H.spc      1 <1>   0.1500 
 13 C        0.0670     3.6240     0.1740 C.ar  1 <1>   0.1020 
 14 S        1.4530     4.7460     0.1300 S.3   1 <1>  -0.2030 
 15 C        2.8450     3.6390    -0.0030 C.ar  1 <1>   0.1020 
 16 C        2.9120     2.6550    -0.9920 C.ar  1 <1>  -0.1500 
 17 H        2.1020     2.5330    -1.7070 H.spc      1 <1>   0.1500 
 18 C        4.0250     1.8110    -1.0760 C.ar  1 <1>  -0.1500 
 19 H        4.0510     1.0500    -1.8520 H.spc      1 <1>   0.1500 
 20 C        5.0910     1.9410    -0.1840 C.ar  1 <1>   0.1000 
 21 N        6.1880     1.1060    -0.2700 N.pl3 1 <1>  -0.9000 
 22 H        6.2350     0.3880    -0.9790 H.spc      1 <1>   0.4000 
 23 H        6.9610     1.2000     0.3730 H.spc      1 <1>   0.4000 
 24 C        5.0260     2.9340     0.7950 C.ar  1 <1>  -0.1500 
 25 H        5.8440     3.0630     1.4990 H.spc      1 <1>   0.1500 
 26 C        3.9140     3.7790     0.8850 C.ar  1 <1>  -0.1500 
 27 H        3.8950     4.5460     1.6560 H.spc      1 <1>   0.1500 
@<TRIPOS>BOND
  1   1   2  1   
  2   2   3  ar  
  3   2  13  ar  
  4   3   4  1   
  5   3   5  ar  
  6   5   6  1   
  7   5   9  ar  
  8   6   7  1   
  9   6   8  1   
 10   9  10  1   
 11   9  11  ar  
 12  11  12  1   
 13  11  13  ar  
 14  13  14  1   
 15  14  15  1   
 16  15  16  ar  
 17  15  26  ar  
 18  16  17  1   
 19  16  18  ar  
 20  18  19  1   
 21  18  20  ar  
 22  20  21  1   
 23  20  24  ar  
 24  21  22  1   
 25  21  23  1   
 26  24  25  1   
 27  24  26  ar  
 28  26  27  1   
@<TRIPOS>SUBSTRUCTURE
  1 ****  15 GROUP 4 **** **** 0
