@<TRIPOS>MOLECULE
CHEM008
34 36 1 0 0 
SMALL
USER_CHARGES


@<TRIPOS>ATOM
  1 H       -2.8110     7.4160     2.2100 H.spc      1 <1>   0.1500 
  2 C       -2.0660     6.8280     1.6770 C.ar  1 <1>  -0.1500 
  3 C       -2.2740     5.4450     1.4990 C.ar  1 <1>  -0.1500 
  4 H       -3.1770     4.9840     1.8960 H.spc      1 <1>   0.1500 
  5 C       -1.3340     4.6600     0.8250 C.ar  1 <1>  -0.1500 
  6 H       -1.4830     3.5930     0.6900 H.spc      1 <1>   0.1500 
  7 C       -0.2060     5.2950     0.3420 C.ar  1 <1>   0.0860 
  8 C       -0.0010     6.6560     0.5170 C.ar  1 <1>   0.0860 
  9 C       -0.9150     7.4490     1.1840 C.ar  1 <1>  -0.1500 
 10 H       -0.7440     8.5120     1.3240 H.spc      1 <1>   0.1500 
 11 C        1.2790     7.0380    -0.0770 C.2   1 <1>   0.4230 
 12 O        1.7560     8.1550    -0.0130 O.2   1 <1>  -0.5700 
 13 C        1.8870     5.8270    -0.7410 C.3   1 <1>   0.1830 
 14 H        1.8400     5.9730    -1.8270 H.spc      1 <1>   0.0000 
 15 C        3.2910     5.5590    -0.3040 C.2   1 <1>   0.4940 
 16 C        3.5870     5.3390     1.1020 C.1   1 <1>   0.4520 
 17 N        3.7390     5.1730     2.2420 N.1   1 <1>  -0.5570 
 18 N        4.2550     5.5200    -1.1770 N.2   1 <1>  -0.6290 
 19 C        5.5760     5.2670    -0.7850 C.ar  1 <1>   0.1790 
 20 C        6.4330     6.3240    -0.4740 C.ar  1 <1>  -0.1500 
 21 H        6.0740     7.3480    -0.5310 H.spc      1 <1>   0.1500 
 22 C        7.7540     6.0740    -0.0930 C.ar  1 <1>  -0.1500 
 23 H        8.4050     6.9120     0.1460 H.spc      1 <1>   0.1500 
 24 C        8.2340     4.7610    -0.0200 C.ar  1 <1>  -0.1440 
 25 C        9.6600     4.4920     0.3600 C.3   1 <1>   0.1440 
 26 H       10.2850     4.4530    -0.5370 H.spc      1 <1>   0.0000 
 27 H       10.0420     5.2740     1.0250 H.spc      1 <1>   0.0000 
 28 H        9.7460     3.5400     0.8950 H.spc      1 <1>   0.0000 
 29 C        7.3830     3.7050    -0.3680 C.ar  1 <1>  -0.1500 
 30 H        7.7420     2.6790    -0.3460 H.spc      1 <1>   0.1500 
 31 C        6.0630     3.9580    -0.7490 C.ar  1 <1>  -0.1500 
 32 H        5.4140     3.1310    -1.0220 H.spc      1 <1>   0.1500 
 33 C        0.9300     4.7180    -0.3750 C.2   1 <1>   0.4230 
 34 O        1.0620     3.5310    -0.6070 O.2   1 <1>  -0.5700 
@<TRIPOS>BOND
  1   1   2  1   
  2   2   3  ar  
  3   2   9  ar  
  4   3   4  1   
  5   3   5  ar  
  6   5   6  1   
  7   5   7  ar  
  8   7   8  ar  
  9   7  33  1   
 10   8   9  ar  
 11   8  11  1   
 12   9  10  1   
 13  11  12  2   
 14  11  13  1   
 15  13  14  1   
 16  13  15  1   
 17  13  33  1   
 18  15  16  1   
 19  15  18  2   
 20  16  17  3   
 21  18  19  1   
 22  19  20  ar  
 23  19  31  ar  
 24  20  21  1   
 25  20  22  ar  
 26  22  23  1   
 27  22  24  ar  
 28  24  25  1   
 29  24  29  ar  
 30  25  26  1   
 31  25  27  1   
 32  25  28  1   
 33  29  30  1   
 34  29  31  ar  
 35  31  32  1   
 36  33  34  2   
@<TRIPOS>SUBSTRUCTURE
  1 ****  15 GROUP 4 **** **** 0
