@<TRIPOS>MOLECULE
CHEM133
30 31 1 0 0 
SMALL
USER_CHARGES


@<TRIPOS>ATOM
  1 H       -0.3220     3.7820    -0.8220 H.spc     1 <1>   0.4500 
  2 O        0.6360     3.7860    -1.0140 O.3   1 <1>  -0.5270 
  3 C        1.2190     2.9400    -0.2460 C.2   1 <1>   0.0060 
  4 C        2.5170     2.5480    -0.0850 C.2   1 <1>   0.0270 
  5 N        3.7170     2.7720    -0.5630 N.pl3 1 <1>  -0.8670 
  6 H        3.8400     3.4140    -1.3470 H.spc     1 <1>   0.4000 
  7 C        4.9670     2.1670    -0.0840 C.3   1 <1>   0.3690 
  8 H        4.8700     1.9380     0.9840 H.spc     1 <1>   0.0000 
  9 C        5.2010     0.8640    -0.8620 C.3   1 <1>   0.0000 
 10 H        4.8800     0.9870    -1.9060 H.spc     1 <1>   0.0000 
 11 H        4.5320     0.0970    -0.4480 H.spc     1 <1>   0.0000 
 12 C        6.6210     0.3030    -0.8820 C.3   1 <1>   0.0000 
 13 H        6.5510    -0.7640    -1.1300 H.spc     1 <1>   0.0000 
 14 H        7.1830     0.7600    -1.7050 H.spc     1 <1>   0.0000 
 15 C        7.3980     0.4500     0.4220 C.3   1 <1>   0.0000 
 16 H        8.1640    -0.3360     0.4440 H.spc     1 <1>   0.0000 
 17 H        6.7540     0.2800     1.2920 H.spc     1 <1>   0.0000 
 18 C        8.1230     1.7900     0.5260 C.3   1 <1>   0.0000 
 19 H        8.8430     1.7300     1.3520 H.spc     1 <1>   0.0000 
 20 H        8.7160     1.9600    -0.3810 H.spc     1 <1>   0.0000 
 21 C        7.2250     2.9970     0.7750 C.3   1 <1>   0.0000 
 22 H        6.8040     2.9350     1.7870 H.spc     1 <1>   0.0000 
 23 H        7.8590     3.8930     0.7670 H.spc     1 <1>   0.0000 
 24 C        6.0980     3.1980    -0.2380 C.3   1 <1>   0.0000 
 25 H        5.6920     4.2030    -0.0620 H.spc     1 <1>   0.0000 
 26 H        6.4900     3.2040    -1.2620 H.spc     1 <1>   0.0000 
 27 C        2.1710     1.5700     0.9680 C.2   1 <1>   0.6410 
 28 O        2.6910     0.7510     1.6860 O.2   1 <1>  -0.5700 
 29 C        0.7610     2.0100     0.8090 C.2   1 <1>   0.6410 
 30 O       -0.2770     1.7020     1.3390 O.2   1 <1>  -0.5700 
@<TRIPOS>BOND
  1   1   2  1   
  2   2   3  1   
  3   3   4  2   
  4   3  29  1   
  5   4   5  1   
  6   4  27  1   
  7   5   6  1   
  8   5   7  1   
  9   7   8  1   
 10   7   9  1   
 11   7  24  1   
 12   9  10  1   
 13   9  11  1   
 14   9  12  1   
 15  12  13  1   
 16  12  14  1   
 17  12  15  1   
 18  15  16  1   
 19  15  17  1   
 20  15  18  1   
 21  18  19  1   
 22  18  20  1   
 23  18  21  1   
 24  21  22  1   
 25  21  23  1   
 26  21  24  1   
 27  24  25  1   
 28  24  26  1   
 29  27  28  2   
 30  27  29  1   
 31  29  30  2   
@<TRIPOS>SUBSTRUCTURE
  1 ****   7 GROUP 4 **** **** 0
