@<TRIPOS>MOLECULE
CHEM160
25 25 1 0 0 
SMALL
USER_CHARGES


@<TRIPOS>ATOM
  1 H       -1.2410     3.5530     0.5950 H.spc     1 <1>   0.1500 
  2 C       -0.7820     2.6110     0.3070 C.ar  1 <1>  -0.1500 
  3 C        0.6190     2.5870     0.2270 C.ar  1 <1>  -0.1500 
  4 H        1.1730     3.4950     0.4520 H.spc     1 <1>   0.1500 
  5 C        1.2910     1.4190    -0.1350 C.ar  1 <1>  -0.1440 
  6 C        2.7930     1.3820    -0.2300 C.3   1 <1>   0.4140 
  7 H        3.2080     2.3870    -0.0870 H.spc     1 <1>   0.0000 
  8 H        3.0820     1.0600    -1.2370 H.spc     1 <1>   0.0000 
  9 N        3.3710     0.4810     0.7600 N.3   1 <1>  -0.9900 
 10 H        3.0520     0.7660     1.6850 H.spc     1 <1>   0.3600 
 11 H        4.3830     0.5870     0.7560 H.spc     1 <1>   0.3600 
 12 C        0.5290     0.2830    -0.4090 C.ar  1 <1>  -0.1500 
 13 H        1.0220    -0.6470    -0.6840 H.spc     1 <1>   0.1500 
 14 C       -0.8710     0.3190    -0.3250 C.ar  1 <1>  -0.1500 
 15 H       -1.3990    -0.6030    -0.5500 H.spc     1 <1>   0.1500 
 16 C       -1.5730     1.4820     0.0340 C.ar  1 <1>   0.1000 
 17 N       -2.9610     1.5130     0.1170 N.pl3 1 <1>  -0.8380 
 18 C       -3.7570     0.3220    -0.1510 C.3   1 <1>   0.3690 
 19 H       -4.8290     0.5100    -0.0300 H.spc     1 <1>   0.0000 
 20 H       -3.6100    -0.0220    -1.1810 H.spc     1 <1>   0.0000 
 21 H       -3.4980    -0.4850     0.5430 H.spc     1 <1>   0.0000 
 22 C       -3.6680     2.7360     0.4750 C.3   1 <1>   0.3690 
 23 H       -3.4540     3.5360    -0.2420 H.spc     1 <1>   0.0000 
 24 H       -4.7540     2.5960     0.4760 H.spc     1 <1>   0.0000 
 25 H       -3.3900     3.0650     1.4820 H.spc     1 <1>   0.0000 
@<TRIPOS>BOND
  1   1   2  1   
  2   2   3  ar  
  3   2  16  ar  
  4   3   4  1   
  5   3   5  ar  
  6   5   6  1   
  7   5  12  ar  
  8   6   7  1   
  9   6   8  1   
 10   6   9  1   
 11   9  10  1   
 12   9  11  1   
 13  12  13  1   
 14  12  14  ar  
 15  14  15  1   
 16  14  16  ar  
 17  16  17  1   
 18  17  18  1   
 19  17  22  1   
 20  18  19  1   
 21  18  20  1   
 22  18  21  1   
 23  22  23  1   
 24  22  24  1   
 25  22  25  1   
@<TRIPOS>SUBSTRUCTURE
  1 ****  16 GROUP 4 **** **** 0
