@<TRIPOS>MOLECULE
CHEM122
17 18 1 0 0 
SMALL
USER_CHARGES


@<TRIPOS>ATOM
  1 H       -6.4010     1.5040     0.7400 H.spc     1 <1>   0.1500 
  2 C       -5.3290     1.6200     0.6590 C.2   1 <1>  -0.0490 
  3 S       -4.4110     2.5730     1.8420 S.3   1 <1>  -0.1570 
  4 C       -2.9610     2.2020     0.9620 C.2   1 <1>   0.2420 
  5 N       -1.6970     2.4910     1.1020 N.2   1 <1>  -0.5650 
  6 C       -1.1010     1.8480     0.0200 C.2   1 <1>   0.0460 
  7 C        0.3760     1.9120    -0.1690 C.3   1 <1>   0.4510 
  8 H        0.7450     2.9000     0.1250 H.spc     1 <1>   0.0000 
  9 H        0.6420     1.7500    -1.2190 H.spc     1 <1>   0.0000 
 10 N        0.9920     0.8810     0.6630 N.3   1 <1>  -0.9900 
 11 H        0.6470     1.0160     1.6160 H.spc     1 <1>   0.3600 
 12 H        1.9940     1.0500     0.7030 H.spc     1 <1>   0.3600 
 13 C       -2.0490     1.1810    -0.7510 C.2   1 <1>  -0.3020 
 14 H       -1.9650     0.5740    -1.6400 H.spc     1 <1>   0.1500 
 15 N       -3.2300     1.4220    -0.1210 N.pl3 1 <1>   0.3340 
 16 C       -4.5520     1.0890    -0.3010 C.2   1 <1>  -0.1810 
 17 H       -4.8610     0.4730    -1.1310 H.spc     1 <1>   0.1500 
@<TRIPOS>BOND
  1   1   2  1   
  2   2   3  1   
  3   2  16  2   
  4   3   4  1   
  5   4   5  2   
  6   4  15  1   
  7   5   6  1   
  8   6   7  1   
  9   6  13  2   
 10   7   8  1   
 11   7   9  1   
 12   7  10  1   
 13  10  11  1   
 14  10  12  1   
 15  13  14  1   
 16  13  15  1   
 17  15  16  1   
 18  16  17  1   
@<TRIPOS>SUBSTRUCTURE
  1 ****   4 GROUP 4 **** **** 0
