@<TRIPOS>MOLECULE
CHEM090
25 25 1 0 0 
SMALL
USER_CHARGES


@<TRIPOS>ATOM
  1 H       -2.7960    -4.4330    -0.3670 H.spc     1 <1>   0.4000 
  2 O       -2.7320    -3.6910    -0.9940 O.3   1 <1>  -0.6800 
  3 C       -2.8730    -2.4800    -0.2510 C.3   1 <1>   0.3410 
  4 C       -1.6490    -2.2370     0.6640 C.2   1 <1>   0.4950 
  5 O       -1.7600    -1.8530     1.8290 O.2   1 <1>  -0.5700 
  6 C       -0.3000    -2.4750     0.0710 C.2   1 <1>  -0.1360 
  7 H       -0.2650    -2.8380    -0.9510 H.spc     1 <1>   0.1500 
  8 C        0.8030    -2.2390     0.7930 C.2   1 <1>  -0.1050 
  9 H        0.7350    -1.8750     1.8150 H.spc     1 <1>   0.1500 
 10 C        2.0950    -2.4590     0.2430 C.2   1 <1>   0.0950 
 11 O        2.3240    -2.9210    -1.0360 O.3   1 <1>  -0.2800 
 12 C        3.6620    -3.0130    -1.2250 C.2   1 <1>  -0.0100 
 13 H        3.9730    -3.3680    -2.1980 H.spc     1 <1>   0.1500 
 14 C        4.3330    -2.6200    -0.0970 C.2   1 <1>  -0.1500 
 15 H        5.4060    -2.5920     0.0340 H.spc     1 <1>   0.1500 
 16 C        3.3350    -2.2660     0.8410 C.2   1 <1>  -0.1500 
 17 H        3.4940    -1.9070     1.8490 H.spc     1 <1>   0.1500 
 18 C       -4.1550    -2.5810     0.5790 C.3   1 <1>   0.0000 
 19 H       -5.0170    -2.8100    -0.0580 H.spc     1 <1>   0.0000 
 20 H       -4.3610    -1.6540     1.1250 H.spc     1 <1>   0.0000 
 21 H       -4.0810    -3.3940     1.3110 H.spc     1 <1>   0.0000 
 22 C       -2.9880    -1.3300    -1.2510 C.3   1 <1>   0.0000 
 23 H       -3.0740    -0.3620    -0.7450 H.spc     1 <1>   0.0000 
 24 H       -2.1130    -1.2890    -1.9110 H.spc     1 <1>   0.0000 
 25 H       -3.8590    -1.4630    -1.9030 H.spc     1 <1>   0.0000 
@<TRIPOS>BOND
  1   1   2  1   
  2   2   3  1   
  3   3   4  1   
  4   3  18  1   
  5   3  22  1   
  6   4   5  2   
  7   4   6  1   
  8   6   7  1   
  9   6   8  2   
 10   8   9  1   
 11   8  10  1   
 12  10  11  1   
 13  10  16  2   
 14  11  12  1   
 15  12  13  1   
 16  12  14  2   
 17  14  15  1   
 18  14  16  1   
 19  16  17  1   
 20  18  19  1   
 21  18  20  1   
 22  18  21  1   
 23  22  23  1   
 24  22  24  1   
 25  22  25  1   
@<TRIPOS>SUBSTRUCTURE
  1 ****   6 GROUP 4 **** **** 0
