@<TRIPOS>MOLECULE
CHEM105
29 30 1 0 0 
SMALL
USER_CHARGES


@<TRIPOS>ATOM
  1 H       -5.1670     4.1720    -1.9950 H.spc     1 <1>   0.1500 
  2 C       -4.9530     3.4370    -1.2180 C.ar  1 <1>  -0.1500 
  3 C       -3.6330     2.9220    -1.1300 C.ar  1 <1>  -0.1500 
  4 H       -2.9150     3.3030    -1.8560 H.spc     1 <1>   0.1500 
  5 C       -3.2300     1.9720    -0.1720 C.ar  1 <1>   0.1170 
  6 N       -1.9310     1.4360    -0.0420 N.am  1 <1>  -0.5470 
  7 H       -1.8430     0.7680     0.7170 H.spc     1 <1>   0.3700 
  8 C       -0.8170     1.7160    -0.8090 C.2   1 <1>   0.5690 
  9 O       -0.8020     2.4910    -1.7620 O.2   1 <1>  -0.5700 
 10 C        0.4560     0.9570    -0.3660 C.3   1 <1>   0.0610 
 11 C        0.8170     1.3310     1.0800 C.3   1 <1>   0.0000 
 12 H        1.7710     0.8820     1.3790 H.spc     1 <1>   0.0000 
 13 H        0.0590     0.9910     1.7950 H.spc     1 <1>   0.0000 
 14 H        0.9050     2.4180     1.1930 H.spc     1 <1>   0.0000 
 15 C        1.6310     1.3500    -1.2800 C.3   1 <1>   0.0000 
 16 H        1.4220     1.0990    -2.3260 H.spc     1 <1>   0.0000 
 17 H        2.5520     0.8310    -0.9910 H.spc     1 <1>   0.0000 
 18 H        1.8270     2.4280    -1.2340 H.spc     1 <1>   0.0000 
 19 C        0.2340    -0.5590    -0.4800 C.3   1 <1>   0.0000 
 20 H       -0.0930    -0.8320    -1.4910 H.spc     1 <1>   0.0000 
 21 H       -0.5330    -0.9160     0.2160 H.spc     1 <1>   0.0000 
 22 H        1.1550    -1.1110    -0.2620 H.spc     1 <1>   0.0000 
 23 C       -4.2530     1.5470     0.7260 C.ar  1 <1>   0.2890 
 24 N       -4.1040     0.6520     1.7210 N.2   1 <1>  -0.5100 
 25 S       -5.5900     0.5210     2.4560 S.3   1 <1>   0.4410 
 26 N       -6.4840     1.5880     1.5510 N.2   1 <1>  -0.5100 
 27 C       -5.6520     2.0960     0.6290 C.ar  1 <1>   0.2890 
 28 C       -5.9930     3.0500    -0.3570 C.ar  1 <1>  -0.1500 
 29 H       -6.9950     3.4540    -0.4380 H.spc     1 <1>   0.1500 
@<TRIPOS>BOND
  1   1   2  1   
  2   2   3  ar  
  3   2  28  ar  
  4   3   4  1   
  5   3   5  ar  
  6   5   6  1   
  7   5  23  ar  
  8   6   7  1   
  9   6   8  am  
 10   8   9  2   
 11   8  10  1   
 12  10  11  1   
 13  10  15  1   
 14  10  19  1   
 15  11  12  1   
 16  11  13  1   
 17  11  14  1   
 18  15  16  1   
 19  15  17  1   
 20  15  18  1   
 21  19  20  1   
 22  19  21  1   
 23  19  22  1   
 24  23  24  2   
 25  23  27  ar  
 26  24  25  1   
 27  25  26  1   
 28  26  27  2   
 29  27  28  ar  
 30  28  29  1   
@<TRIPOS>SUBSTRUCTURE
  1 ****   5 GROUP 4 **** **** 0
