@<TRIPOS>MOLECULE
CHEM047
27 27 1 0 0 
SMALL
USER_CHARGES


@<TRIPOS>ATOM
  1 H        2.5030    -3.4110     1.8890 H.spc     1 <1>   0.4500 
  2 O        1.8520    -2.8160     1.4850 O.3   1 <1>  -0.5320 
  3 C        2.5100    -1.7460     0.9430 C.ar  1 <1>   0.0820 
  4 C        3.9000    -1.6700     1.0430 C.ar  1 <1>  -0.1500 
  5 H        4.4530    -2.4560     1.5500 H.spc     1 <1>   0.1500 
  6 C        4.5990    -0.5820     0.4950 C.ar  1 <1>  -0.1440 
  7 C        6.0960    -0.5330     0.6230 C.3   1 <1>   0.1440 
  8 H        6.4820    -1.3910     1.1860 H.spc     1 <1>   0.0000 
  9 H        6.4040     0.3720     1.1560 H.spc     1 <1>   0.0000 
 10 H        6.5630    -0.5510    -0.3670 H.spc     1 <1>   0.0000 
 11 C        3.8860     0.4330    -0.1620 C.ar  1 <1>   0.1000 
 12 N        4.5220     1.5270    -0.7270 N.pl3 1 <1>  -0.9000 
 13 H        5.5250     1.6290    -0.6850 H.spc     1 <1>   0.4000 
 14 H        3.9850     2.2450    -1.1940 H.spc     1 <1>   0.4000 
 15 C        2.4890     0.3350    -0.2500 C.ar  1 <1>  -0.1500 
 16 H        1.9420     1.1260    -0.7590 H.spc     1 <1>   0.1500 
 17 C        1.7770    -0.7480     0.2970 C.ar  1 <1>  -0.1440 
 18 C        0.2630    -0.8190     0.1840 C.3   1 <1>   0.1440 
 19 H       -0.1000    -1.7310     0.6730 H.spc     1 <1>   0.0000 
 20 C       -0.1890    -0.8970    -1.2780 C.3   1 <1>   0.0000 
 21 H       -1.2740    -1.0310    -1.3380 H.spc     1 <1>   0.0000 
 22 H        0.2820    -1.7450    -1.7870 H.spc     1 <1>   0.0000 
 23 H        0.0640     0.0110    -1.8350 H.spc     1 <1>   0.0000 
 24 C       -0.4090     0.3580     0.8990 C.3   1 <1>   0.0000 
 25 H       -0.0920     0.4120     1.9460 H.spc     1 <1>   0.0000 
 26 H       -0.1700     1.3170     0.4270 H.spc     1 <1>   0.0000 
 27 H       -1.4990     0.2440     0.8840 H.spc     1 <1>   0.0000 
@<TRIPOS>BOND
  1   1   2  1   
  2   2   3  1   
  3   3   4  ar  
  4   3  17  ar  
  5   4   5  1   
  6   4   6  ar  
  7   6   7  1   
  8   6  11  ar  
  9   7   8  1   
 10   7   9  1   
 11   7  10  1   
 12  11  12  1   
 13  11  15  ar  
 14  12  13  1   
 15  12  14  1   
 16  15  16  1   
 17  15  17  ar  
 18  17  18  1   
 19  18  19  1   
 20  18  20  1   
 21  18  24  1   
 22  20  21  1   
 23  20  22  1   
 24  20  23  1   
 25  24  25  1   
 26  24  26  1   
 27  24  27  1   
@<TRIPOS>SUBSTRUCTURE
  1 ****  17 GROUP 4 **** **** 0
