@<TRIPOS>MOLECULE
CHEM053
26 26 1 0 0 
SMALL
USER_CHARGES


@<TRIPOS>ATOM
  1 H       -0.3680    -2.8420    -0.3410 H.spc     1 <1>   0.0600 
  2 C       -0.4560    -1.7520    -0.1830 C.2   1 <1>   0.3040 
  3 N        0.5860    -0.9980    -0.0480 N.2   1 <1>  -0.5120 
  4 N        1.7850    -1.6370    -0.1160 N.am  1 <1>  -0.3680 
  5 H        1.8380    -2.6370    -0.2590 H.spc     1 <1>   0.3700 
  6 C        2.9690    -0.9510     0.0060 C.2   1 <1>   0.7800 
  7 O        3.1070     0.2520     0.1830 O.2   1 <1>  -0.5700 
  8 O        3.9990    -1.8360    -0.1010 O.3   1 <1>  -0.4300 
  9 C        5.2950    -1.2360     0.0110 C.3   1 <1>   0.2800 
 10 H        5.3920    -0.7420     0.9840 H.spc     1 <1>   0.0000 
 11 H        5.4350    -0.5040    -0.7920 H.spc     1 <1>   0.0000 
 12 C        6.3360    -2.3320    -0.1090 C.3   1 <1>   0.0000 
 13 H        6.1940    -3.0860     0.6730 H.spc     1 <1>   0.0000 
 14 H        7.3460    -1.9230    -0.0260 H.spc     1 <1>   0.0000 
 15 H        6.2420    -2.8490    -1.0700 H.spc     1 <1>   0.0000 
 16 C       -1.8220    -1.1950    -0.1320 C.ar  1 <1>   0.0860 
 17 C       -2.0280     0.1750     0.0670 C.ar  1 <1>  -0.1500 
 18 H       -1.1810     0.8480     0.1870 H.spc     1 <1>   0.1500 
 19 C       -3.3260     0.6840     0.1110 C.ar  1 <1>  -0.1500 
 20 H       -3.4860     1.7490     0.2650 H.spc     1 <1>   0.1500 
 21 C       -4.4160    -0.1740    -0.0420 C.ar  1 <1>  -0.1500 
 22 H       -5.4260     0.2270    -0.0070 H.spc     1 <1>   0.1500 
 23 C       -4.2030    -1.5380    -0.2390 C.ar  1 <1>   0.1770 
 24 CL      -5.5500    -2.5930    -0.4280 Cl    1 <1>  -0.1770 
 25 C       -2.9100    -2.0590    -0.2850 C.ar  1 <1>  -0.1500 
 26 H       -2.7600    -3.1230    -0.4400 H.spc     1 <1>   0.1500 
@<TRIPOS>BOND
  1   1   2  1   
  2   2   3  2   
  3   2  16  1   
  4   3   4  1   
  5   4   5  1   
  6   4   6  am  
  7   6   7  2   
  8   6   8  1   
  9   8   9  1   
 10   9  10  1   
 11   9  11  1   
 12   9  12  1   
 13  12  13  1   
 14  12  14  1   
 15  12  15  1   
 16  16  17  ar  
 17  16  25  ar  
 18  17  18  1   
 19  17  19  ar  
 20  19  20  1   
 21  19  21  ar  
 22  21  22  1   
 23  21  23  ar  
 24  23  24  1   
 25  23  25  ar  
 26  25  26  1   
@<TRIPOS>SUBSTRUCTURE
  1 ****   3 GROUP 4 **** **** 0
