@<TRIPOS>MOLECULE
CHEM031
26 28 1 0 0 
SMALL
USER_CHARGES


@<TRIPOS>ATOM
  1 H        1.5310     3.2570    -0.2800 H.spc     1 <1>   0.4000 
  2 N        2.4820     2.8820    -0.3130 N.2   1 <1>  -0.8500 
  3 C        2.4680     1.5860    -0.2830 C.2   1 <1>   0.3490 
  4 C        1.2240     0.7900    -0.2080 C.2   1 <1>  -0.1240 
  5 C        1.2950    -0.5450    -0.1890 C.2   1 <1>  -0.0380 
  6 N        2.4520    -1.2660    -0.2330 N.pl3 1 <1>  -0.6000 
  7 H        2.4160    -2.2760    -0.2160 H.spc     1 <1>   0.4000 
  8 C        3.6900    -0.6070    -0.3000 C.ar  1 <1>   0.1000 
  9 C        4.8840    -1.3330    -0.3420 C.ar  1 <1>  -0.1500 
 10 H        4.8690    -2.4190    -0.3240 H.spc     1 <1>   0.1500 
 11 C        6.1120    -0.6690    -0.4100 C.ar  1 <1>  -0.1500 
 12 H        7.0360    -1.2410    -0.4440 H.spc     1 <1>   0.1500 
 13 C        6.1580     0.7260    -0.4360 C.ar  1 <1>  -0.1500 
 14 H        7.1140     1.2390    -0.4890 H.spc     1 <1>   0.1500 
 15 C        4.9760     1.4650    -0.3940 C.ar  1 <1>  -0.1500 
 16 H        5.0120     2.5520    -0.4140 H.spc     1 <1>   0.1500 
 17 C        3.7450     0.8040    -0.3260 C.ar  1 <1>   0.0860 
 18 C       -0.0620    -1.1620    -0.1210 C.3   1 <1>   0.1380 
 19 H       -0.3420    -1.5820    -1.0930 H.spc     1 <1>   0.0000 
 20 H       -0.1290    -1.9460     0.6390 H.spc     1 <1>   0.0000 
 21 C       -0.9490     0.0340     0.2440 C.3   1 <1>   0.0000 
 22 H       -1.9270    -0.0150    -0.2460 H.spc     1 <1>   0.0000 
 23 H       -1.1320     0.0390     1.3270 H.spc     1 <1>   0.0000 
 24 C       -0.1700     1.2930    -0.1510 C.3   1 <1>   0.1380 
 25 H       -0.3060     2.0840     0.5920 H.spc     1 <1>   0.0000 
 26 H       -0.4860     1.6640    -1.1320 H.spc     1 <1>   0.0000 
@<TRIPOS>BOND
  1   1   2  1   
  2   2   3  2   
  3   3   4  1   
  4   3  17  1   
  5   4   5  2   
  6   4  24  1   
  7   5   6  1   
  8   5  18  1   
  9   6   7  1   
 10   6   8  1   
 11   8   9  ar  
 12   8  17  ar  
 13   9  10  1   
 14   9  11  ar  
 15  11  12  1   
 16  11  13  ar  
 17  13  14  1   
 18  13  15  ar  
 19  15  16  1   
 20  15  17  ar  
 21  18  19  1   
 22  18  20  1   
 23  18  21  1   
 24  21  22  1   
 25  21  23  1   
 26  21  24  1   
 27  24  25  1   
 28  24  26  1   
@<TRIPOS>SUBSTRUCTURE
  1 ****  17 GROUP 4 **** **** 0
