@<TRIPOS>MOLECULE
CHEM086
24 25 1 0 0 
SMALL
USER_CHARGES


@<TRIPOS>ATOM
  1 H       -1.6550     3.3600     1.1770 H.spc     1 <1>   0.1500 
  2 C       -1.9960     2.3540     0.9450 C.ar  1 <1>  -0.1500 
  3 C       -1.1980     1.2580     1.2490 C.ar  1 <1>  -0.1500 
  4 H       -0.2290     1.4050     1.7210 H.spc     1 <1>   0.1500 
  5 C       -1.6490    -0.0260     0.9420 C.ar  1 <1>   0.0820 
  6 O       -0.8190    -1.0780     1.2360 O.3   1 <1>  -0.2660 
  7 S        0.1980    -1.5330     0.0380 S.o2  1 <1>   1.4370 
  8 H       -0.1800    -0.9330    -1.0840 H.spc     1 <1>   0.0470 
  9 O        0.0120    -2.9620    -0.1470 O.2   1 <1>  -0.6500 
 10 O        1.5140    -1.0240     0.3850 O.2   1 <1>  -0.6500 
 11 C       -2.9140    -0.2510     0.3570 C.ar  1 <1>   0.0000 
 12 C       -3.4190    -1.5350     0.0680 C.ar  1 <1>  -0.1500 
 13 H       -2.8480    -2.4280     0.3150 H.spc     1 <1>   0.1500 
 14 C       -4.6740    -1.6980    -0.5270 C.ar  1 <1>  -0.1500 
 15 H       -5.0320    -2.7040    -0.7340 H.spc     1 <1>   0.1500 
 16 C       -5.4600    -0.5950    -0.8460 C.ar  1 <1>   0.1000 
 17 N       -6.6990    -0.7590    -1.4360 N.pl3 1 <1>  -0.9000 
 18 H       -7.2740     0.0390    -1.6660 H.spc     1 <1>   0.4000 
 19 H       -7.0510    -1.6830    -1.6460 H.spc     1 <1>   0.4000 
 20 C       -4.9720     0.6810    -0.5540 C.ar  1 <1>  -0.1500 
 21 H       -5.5860     1.5470    -0.7940 H.spc     1 <1>   0.1500 
 22 C       -3.7140     0.8710     0.0460 C.ar  1 <1>   0.0000 
 23 C       -3.2410     2.1620     0.3430 C.ar  1 <1>  -0.1500 
 24 H       -3.8510     3.0340     0.1130 H.spc     1 <1>   0.1500 
@<TRIPOS>BOND
  1   1   2  1   
  2   2   3  ar  
  3   2  23  ar  
  4   3   4  1   
  5   3   5  ar  
  6   5   6  1   
  7   5  11  ar  
  8   6   7  1   
  9   7   8  1   
 10   7   9  2   
 11   7  10  2   
 12  11  12  ar  
 13  11  22  ar  
 14  12  13  1   
 15  12  14  ar  
 16  14  15  1   
 17  14  16  ar  
 18  16  17  1   
 19  16  20  ar  
 20  17  18  1   
 21  17  19  1   
 22  20  21  1   
 23  20  22  ar  
 24  22  23  ar  
 25  23  24  1   
@<TRIPOS>SUBSTRUCTURE
  1 ****  11 GROUP 4 **** **** 0
