@<TRIPOS>MOLECULE
CHEM138
33 36 1 0 0 
SMALL
USER_CHARGES


@<TRIPOS>ATOM
  1 H        2.6370     1.5660    -1.7600 H.spc     1 <1>   0.4000 
  2 O        1.7640     1.1840    -1.5550 O.3   1 <1>  -0.6800 
  3 C        1.9280     0.4720    -0.3410 C.3   1 <1>   0.5670 
  4 H        1.7130     1.1200     0.5140 H.spc     1 <1>   0.0000 
  5 C        3.3380    -0.1090    -0.2180 C.ar  1 <1>   0.1660 
  6 N        4.4750     0.6020    -0.2700 N.ar  1 <1>  -0.6200 
  7 C        5.6130    -0.1230    -0.1560 C.ar  1 <1>   0.1660 
  8 C        5.6240    -1.5190     0.0190 C.ar  1 <1>  -0.0540 
  9 N        4.4130    -2.2210     0.0390 N.ar  1 <1>   0.5710 
 10 O        4.4030    -3.4880     0.1590 O.2   1 <1>  -0.7500 
 11 C        3.2570    -1.4940    -0.0800 C.ar  1 <1>   0.0900 
 12 C        1.8800    -1.9240    -0.1270 C.ar  1 <1>   0.0000 
 13 C        1.3060    -3.1800    -0.0440 C.ar  1 <1>  -0.1500 
 14 H        1.9150    -4.0710     0.0890 H.spc     1 <1>   0.1500 
 15 C       -0.0850    -3.2850    -0.1430 C.ar  1 <1>  -0.1500 
 16 H       -0.5540    -4.2650    -0.0840 H.spc     1 <1>   0.1500 
 17 C       -0.8850    -2.1430    -0.3260 C.ar  1 <1>  -0.1500 
 18 H       -1.9640    -2.2530    -0.4060 H.spc     1 <1>   0.1500 
 19 C       -0.3100    -0.8740    -0.4100 C.ar  1 <1>  -0.1500 
 20 H       -0.9240     0.0090    -0.5580 H.spc     1 <1>   0.1500 
 21 C        1.0680    -0.7770    -0.3070 C.ar  1 <1>  -0.1440 
 22 C        6.8940    -2.3140     0.1130 C.3   1 <1>   0.1440 
 23 H        6.8110    -3.0800     0.8930 H.spc     1 <1>   0.0000 
 24 H        7.0420    -2.8300    -0.8440 H.spc     1 <1>   0.0000 
 25 C        8.1190    -1.4510     0.4120 C.3   1 <1>   0.0000 
 26 H        8.1170    -1.1560     1.4690 H.spc     1 <1>   0.0000 
 27 H        9.0310    -2.0350     0.2440 H.spc     1 <1>   0.0000 
 28 C        8.1260    -0.2020    -0.4630 C.3   1 <1>   0.0000 
 29 H        9.0380     0.3790    -0.2840 H.spc     1 <1>   0.0000 
 30 H        8.1320    -0.4940    -1.5210 H.spc     1 <1>   0.0000 
 31 C        6.9020     0.6600    -0.1660 C.3   1 <1>   0.1440 
 32 H        7.0160     1.1310     0.8180 H.spc     1 <1>   0.0000 
 33 H        6.8370     1.4650    -0.9080 H.spc     1 <1>   0.0000 
@<TRIPOS>BOND
  1   1   2  1   
  2   2   3  1   
  3   3   4  1   
  4   3   5  1   
  5   3  21  1   
  6   5   6  ar  
  7   5  11  ar  
  8   6   7  ar  
  9   7   8  ar  
 10   7  31  1   
 11   8   9  ar  
 12   8  22  1   
 13   9  10  2   
 14   9  11  ar  
 15  11  12  1   
 16  12  13  ar  
 17  12  21  ar  
 18  13  14  1   
 19  13  15  ar  
 20  15  16  1   
 21  15  17  ar  
 22  17  18  1   
 23  17  19  ar  
 24  19  20  1   
 25  19  21  ar  
 26  22  23  1   
 27  22  24  1   
 28  22  25  1   
 29  25  26  1   
 30  25  27  1   
 31  25  28  1   
 32  28  29  1   
 33  28  30  1   
 34  28  31  1   
 35  31  32  1   
 36  31  33  1   
@<TRIPOS>SUBSTRUCTURE
  1 ****  11 GROUP 4 **** **** 0
