@<TRIPOS>MOLECULE
CHEM175
26 27 1 0 0 
SMALL
USER_CHARGES


@<TRIPOS>ATOM
  1 H        0.0380    -0.1090     1.4030 H.spc     1 <1>   0.4000 
  2 O        0.8180     0.4820     1.4010 O.3   1 <1>  -0.6800 
  3 C        1.3820     0.3750     0.1070 C.3   1 <1>   0.4850 
  4 C        0.7840     1.3810    -0.8760 C.3   1 <1>   0.0610 
  5 H        0.9420     1.0850    -1.9200 H.spc     1 <1>   0.0000 
  6 H        1.2500     2.3690    -0.7700 H.spc     1 <1>   0.0000 
  7 C       -0.6960     1.5710    -0.6490 C.2   1 <1>   0.4480 
  8 O       -1.5180     0.7450    -1.0400 O.2   1 <1>  -0.5700 
  9 C       -1.1260     2.8080     0.0970 C.3   1 <1>   0.0610 
 10 H       -0.6580     2.8290     1.0840 H.spc     1 <1>   0.0000 
 11 H       -0.8420     3.6960    -0.4740 H.spc     1 <1>   0.0000 
 12 H       -2.2120     2.8030     0.2230 H.spc     1 <1>   0.0000 
 13 C        1.3430    -1.0820    -0.4790 C.2   1 <1>   0.5690 
 14 O        0.3530    -1.7700    -0.6620 O.2   1 <1>  -0.5700 
 15 N        2.6530    -1.4880    -0.6990 N.am  1 <1>  -0.5470 
 16 H        2.8840    -2.3890    -1.0920 H.spc     1 <1>   0.3700 
 17 C        3.5560    -0.5250    -0.2890 C.ar  1 <1>   0.1170 
 18 C        4.9340    -0.6050    -0.3270 C.ar  1 <1>  -0.1500 
 19 H        5.4470    -1.4740    -0.7250 H.spc     1 <1>   0.1500 
 20 C        5.6530     0.4790     0.1820 C.ar  1 <1>  -0.1500 
 21 H        6.7390     0.4700     0.1810 H.spc     1 <1>   0.1500 
 22 C        4.9790     1.5890     0.7130 C.ar  1 <1>   0.1900 
 23 F        5.6930     2.6110     1.2010 F     1 <1>  -0.1900 
 24 C        3.5880     1.6550     0.7430 C.ar  1 <1>  -0.1500 
 25 H        3.0900     2.5180     1.1710 H.spc     1 <1>   0.1500 
 26 C        2.8790     0.5830     0.2250 C.ar  1 <1>  -0.1440 
@<TRIPOS>BOND
  1   1   2  1   
  2   2   3  1   
  3   3   4  1   
  4   3  13  1   
  5   3  26  1   
  6   4   5  1   
  7   4   6  1   
  8   4   7  1   
  9   7   8  2   
 10   7   9  1   
 11   9  10  1   
 12   9  11  1   
 13   9  12  1   
 14  13  14  2   
 15  13  15  am  
 16  15  16  1   
 17  15  17  1   
 18  17  18  ar  
 19  17  26  ar  
 20  18  19  1   
 21  18  20  ar  
 22  20  21  1   
 23  20  22  ar  
 24  22  23  1   
 25  22  24  ar  
 26  24  25  1   
 27  24  26  ar  
@<TRIPOS>SUBSTRUCTURE
  1 ****  26 GROUP 4 **** **** 0
