@<TRIPOS>MOLECULE
CHEM033
29 29 1 0 0 
SMALL
USER_CHARGES


@<TRIPOS>ATOM
  1 H       -2.5420     0.9900     1.5500 H.spc     1 <1>   0.5000 
  2 O       -1.9290     1.7540     1.5860 O.3   1 <1>  -0.6500 
  3 C       -1.6430     2.0240     0.3080 C.2   1 <1>   0.7200 
  4 O       -2.0150     1.3390    -0.6230 O.2   1 <1>  -0.5700 
  5 C       -0.7400     3.2390     0.1710 C.2   1 <1>   0.4360 
  6 N       -1.1940     4.4620     0.1730 N.2   1 <1>  -0.5130 
  7 O       -2.5910     4.4790     0.3020 O.3   1 <1>  -0.2170 
  8 C       -3.0300     5.8330     0.2900 C.3   1 <1>   0.2800 
  9 H       -2.7570     6.3110    -0.6560 H.spc     1 <1>   0.0000 
 10 H       -2.5920     6.3800     1.1300 H.spc     1 <1>   0.0000 
 11 H       -4.1180     5.8440     0.3900 H.spc     1 <1>   0.0000 
 12 C        0.7160     2.9720     0.0340 C.2   1 <1>   0.1140 
 13 C        1.3040     1.7660    -0.0380 C.2   1 <1>  -0.0490 
 14 H        0.8230     0.7980    -0.0150 H.spc     1 <1>   0.1500 
 15 S        3.0470     1.9210    -0.1940 S.3   1 <1>  -0.2420 
 16 C        2.9310     3.7100    -0.1590 C.2   1 <1>   0.6410 
 17 N        3.9100     4.5560    -0.2320 N.2   1 <1>  -0.4500 
 18 N        5.1690     3.9760    -0.3560 N.2   1 <1>  -0.4500 
 19 C        6.1390     4.8380    -0.3900 C.2   1 <1>   0.3280 
 20 C        5.9500     6.3330    -0.3020 C.3   1 <1>   0.0610 
 21 H        6.9160     6.8420    -0.3540 H.spc     1 <1>   0.0000 
 22 H        5.4720     6.5890     0.6480 H.spc     1 <1>   0.0000 
 23 H        5.3280     6.6770    -1.1320 H.spc     1 <1>   0.0000 
 24 C        7.5470     4.3220    -0.5260 C.3   1 <1>   0.0610 
 25 H        7.5560     3.2300    -0.5810 H.spc     1 <1>   0.0000 
 26 H        8.1350     4.6420     0.3390 H.spc     1 <1>   0.0000 
 27 H        7.9950     4.7290    -1.4370 H.spc     1 <1>   0.0000 
 28 N        1.6050     4.0270    -0.0350 N.pl3 1 <1>  -0.5500 
 29 H        1.2700     4.9790     0.0050 H.spc     1 <1>   0.4000 
@<TRIPOS>BOND
  1   1   2  1   
  2   2   3  1   
  3   3   4  2   
  4   3   5  1   
  5   5   6  2   
  6   5  12  1   
  7   6   7  1   
  8   7   8  1   
  9   8   9  1   
 10   8  10  1   
 11   8  11  1   
 12  12  13  2   
 13  12  28  1   
 14  13  14  1   
 15  13  15  1   
 16  15  16  1   
 17  16  17  2   
 18  16  28  1   
 19  17  18  1   
 20  18  19  2   
 21  19  20  1   
 22  19  24  1   
 23  20  21  1   
 24  20  22  1   
 25  20  23  1   
 26  24  25  1   
 27  24  26  1   
 28  24  27  1   
 29  28  29  1   
@<TRIPOS>SUBSTRUCTURE
  1 ****  28 GROUP 4 **** **** 0
