@<TRIPOS>MOLECULE
CHEM156
34 36 1 0 0 
SMALL
USER_CHARGES


@<TRIPOS>ATOM
  1 H       -8.9020     5.2010     1.2380 H.spc     1 <1>   0.1500 
  2 C       -7.8510     5.1720     0.9620 C.ar  1 <1>  -0.1500 
  3 C       -7.3530     4.0980     0.2270 C.ar  1 <1>  -0.1500 
  4 H       -8.0140     3.2880    -0.0710 H.spc     1 <1>   0.1500 
  5 C       -6.0030     4.0610    -0.1280 C.ar  1 <1>  -0.1500 
  6 H       -5.6280     3.2160    -0.7010 H.spc     1 <1>   0.1500 
  7 C       -5.1450     5.1010     0.2510 C.ar  1 <1>   0.0860 
  8 C       -3.7180     5.0330    -0.1430 C.2   1 <1>   0.3030 
  9 N       -3.1920     4.0060    -0.7320 N.2   1 <1>  -0.5130 
 10 O       -1.8230     4.2890    -0.9360 O.3   1 <1>  -0.2170 
 11 C       -1.6120     5.6940    -0.7340 C.3   1 <1>   0.3410 
 12 C       -0.2660     5.9130    -0.0300 C.2   1 <1>   0.5690 
 13 O       -0.0610     6.8680     0.7180 O.2   1 <1>  -0.5700 
 14 N        0.7060     4.9920    -0.3770 N.am  1 <1>  -0.5790 
 15 H        0.4330     4.2270    -0.9870 H.spc     1 <1>   0.3700 
 16 C        2.0470     5.0630     0.0990 C.3   1 <1>   0.0490 
 17 H        2.4630     6.0680     0.0550 H.spc     1 <1>   0.1000 
 18 C        2.4960     4.2000     1.2450 C.3   1 <1>  -0.2000 
 19 H        3.1760     4.6380     1.9660 H.spc     1 <1>   0.1000 
 20 H        1.7840     3.5040     1.6730 H.spc     1 <1>   0.1000 
 21 C        3.0070     3.9300    -0.1400 C.3   1 <1>  -0.2000 
 22 H        4.0390     4.1800    -0.3560 H.spc     1 <1>   0.1000 
 23 H        2.6520     3.0390    -0.6430 H.spc     1 <1>   0.1000 
 24 C       -1.5820     6.3770    -2.1010 C.3   1 <1>   0.0000 
 25 H       -0.7810     5.9660    -2.7260 H.spc     1 <1>   0.0000 
 26 H       -1.4150     7.4560    -2.0060 H.spc     1 <1>   0.0000 
 27 H       -2.5180     6.2160    -2.6470 H.spc     1 <1>   0.0000 
 28 C       -2.7700     6.1500     0.1310 C.3   1 <1>   0.0610 
 29 H       -2.5350     6.1520     1.2010 H.spc     1 <1>   0.0000 
 30 H       -3.1670     7.1250    -0.1630 H.spc     1 <1>   0.0000 
 31 C       -5.6480     6.1750     0.9930 C.ar  1 <1>  -0.1500 
 32 H       -5.0110     6.9930     1.3150 H.spc     1 <1>   0.1500 
 33 C       -7.0000     6.2080     1.3460 C.ar  1 <1>  -0.1500 
 34 H       -7.3910     7.0430     1.9230 H.spc     1 <1>   0.1500 
@<TRIPOS>BOND
  1   1   2  1   
  2   2   3  ar  
  3   2  33  ar  
  4   3   4  1   
  5   3   5  ar  
  6   5   6  1   
  7   5   7  ar  
  8   7   8  1   
  9   7  31  ar  
 10   8   9  2   
 11   8  28  1   
 12   9  10  1   
 13  10  11  1   
 14  11  12  1   
 15  11  24  1   
 16  11  28  1   
 17  12  13  2   
 18  12  14  am  
 19  14  15  1   
 20  14  16  1   
 21  16  17  1   
 22  16  18  1   
 23  16  21  1   
 24  18  19  1   
 25  18  20  1   
 26  18  21  1   
 27  21  22  1   
 28  21  23  1   
 29  24  25  1   
 30  24  26  1   
 31  24  27  1   
 32  28  29  1   
 33  28  30  1   
 34  31  32  1   
 35  31  33  ar  
 36  33  34  1   
@<TRIPOS>SUBSTRUCTURE
  1 ****  28 GROUP 4 **** **** 0
