@<TRIPOS>MOLECULE
CHEM051
25 26 1 0 0 
SMALL
USER_CHARGES


@<TRIPOS>ATOM
  1 H       -2.0330    -6.8830    -0.4790 H.spc     1 <1>   0.5000 
  2 O       -1.1420    -6.4780    -0.5440 O.3   1 <1>  -0.6500 
  3 C       -1.3730    -5.1680    -0.3450 C.2   1 <1>   0.7060 
  4 O       -2.5040    -4.7640    -0.1410 O.2   1 <1>  -0.5700 
  5 C       -0.1540    -4.3470    -0.4610 C.2   1 <1>   0.1150 
  6 S       -0.3190    -2.7060    -0.9880 S.3   1 <1>  -0.2420 
  7 C        1.4300    -2.4400    -0.8890 C.2   1 <1>   0.5810 
  8 S        2.1140    -1.0000    -1.3920 S.2   1 <1>  -0.3800 
  9 N        2.0350    -3.6270    -0.4180 N.am  1 <1>  -0.2860 
 10 C        3.4450    -3.7410    -0.2230 C.ar  1 <1>   0.1170 
 11 C        4.1600    -4.7830    -0.8300 C.ar  1 <1>  -0.1500 
 12 H        3.6600    -5.4890    -1.4890 H.spc     1 <1>   0.1500 
 13 C        5.5390    -4.9090    -0.6350 C.ar  1 <1>  -0.1500 
 14 H        6.0820    -5.7150    -1.1210 H.spc     1 <1>   0.1500 
 15 C        6.2090    -3.9940     0.1740 C.ar  1 <1>   0.1770 
 16 CL       7.9050    -4.1490     0.4170 Cl    1 <1>  -0.1770 
 17 C        5.5130    -2.9560     0.7870 C.ar  1 <1>  -0.1500 
 18 H        6.0330    -2.2430     1.4220 H.spc     1 <1>   0.1500 
 19 C        4.1340    -2.8300     0.5890 C.ar  1 <1>  -0.1500 
 20 H        3.6070    -2.0270     1.1000 H.spc     1 <1>   0.1500 
 21 C        1.1210    -4.6740    -0.1810 C.2   1 <1>  -0.0290 
 22 C        1.5640    -5.9640     0.4470 C.3   1 <1>   0.1380 
 23 H        0.7540    -6.4580     0.9910 H.spc     1 <1>   0.0000 
 24 H        1.9360    -6.6580    -0.3120 H.spc     1 <1>   0.0000 
 25 H        2.3480    -5.7980     1.1940 H.spc     1 <1>   0.0000 
@<TRIPOS>BOND
  1   1   2  1   
  2   2   3  1   
  3   3   4  2   
  4   3   5  1   
  5   5   6  1   
  6   5  21  2   
  7   6   7  1   
  8   7   8  2   
  9   7   9  am  
 10   9  10  1   
 11   9  21  1   
 12  10  11  ar  
 13  10  19  ar  
 14  11  12  1   
 15  11  13  ar  
 16  13  14  1   
 17  13  15  ar  
 18  15  16  1   
 19  15  17  ar  
 20  17  18  1   
 21  17  19  ar  
 22  19  20  1   
 23  21  22  1   
 24  22  23  1   
 25  22  24  1   
 26  22  25  1   
@<TRIPOS>SUBSTRUCTURE
  1 ****   9 GROUP 4 **** **** 0
