@<TRIPOS>MOLECULE
CHEM040
28 29 1 0 0 
SMALL
USER_CHARGES


@<TRIPOS>ATOM
  1 H        4.8300    -1.4680     1.6780 H.spc     1 <1>   0.1500 
  2 C        4.3770    -2.0400     0.8720 C.ar  1 <1>  -0.1500 
  3 C        5.0640    -2.2230    -0.3280 C.ar  1 <1>  -0.1500 
  4 H        6.0530    -1.7890    -0.4570 H.spc     1 <1>   0.1500 
  5 C        4.4830    -2.9720    -1.3510 C.ar  1 <1>   0.1770 
  6 CL       5.3340    -3.2030    -2.8290 Cl    1 <1>  -0.1770 
  7 C        3.2170    -3.5330    -1.1870 C.ar  1 <1>  -0.1500 
  8 H        2.7690    -4.1230    -1.9820 H.spc     1 <1>   0.1500 
  9 C        2.5190    -3.3360     0.0060 C.ar  1 <1>   0.1790 
 10 N        1.2510    -3.9030     0.1840 N.2   1 <1>  -0.6290 
 11 C        0.1880    -3.2160    -0.1460 C.2   1 <1>   0.4860 
 12 C       -1.1520    -3.8620     0.0690 C.2   1 <1>  -0.0030 
 13 S       -1.3190    -5.4290     0.7710 S.o2  1 <1>   1.4550 
 14 O       -2.4700    -6.0940     0.1890 O.2   1 <1>  -0.6500 
 15 O       -1.2400    -5.3040     2.2140 O.2   1 <1>  -0.6500 
 16 N       -0.0090    -6.4320     0.3830 N.am  1 <1>  -0.9780 
 17 H        0.0300    -7.1930     1.0610 H.spc     1 <1>   0.4200 
 18 H        0.8510    -5.8660     0.4110 H.spc     1 <1>   0.4200 
 19 C       -2.2530    -3.1570    -0.2660 C.2   1 <1>  -0.1500 
 20 H       -3.2500    -3.5660    -0.1210 H.spc     1 <1>   0.1500 
 21 C       -2.1650    -1.8220    -0.8340 C.2   1 <1>  -0.1500 
 22 H       -3.0790    -1.3000    -1.0960 H.spc     1 <1>   0.1500 
 23 C       -0.9570    -1.2680    -1.0170 C.2   1 <1>  -0.0500 
 24 H       -0.8220    -0.2750    -1.4330 H.spc     1 <1>   0.1500 
 25 N        0.1960    -1.9340    -0.6840 N.pl3 1 <1>  -0.5500 
 26 H        1.0770    -1.4620    -0.8420 H.spc     1 <1>   0.4000 
 27 C        3.1100    -2.6010     1.0380 C.ar  1 <1>  -0.1500 
 28 H        2.5780    -2.4680     1.9780 H.spc     1 <1>   0.1500 
@<TRIPOS>BOND
  1   1   2  1   
  2   2   3  ar  
  3   2  27  ar  
  4   3   4  1   
  5   3   5  ar  
  6   5   6  1   
  7   5   7  ar  
  8   7   8  1   
  9   7   9  ar  
 10   9  10  1   
 11   9  27  ar  
 12  10  11  2   
 13  11  12  1   
 14  11  25  1   
 15  12  13  1   
 16  12  19  2   
 17  13  14  2   
 18  13  15  2   
 19  13  16  am  
 20  16  17  1   
 21  16  18  1   
 22  19  20  1   
 23  19  21  1   
 24  21  22  1   
 25  21  23  2   
 26  23  24  1   
 27  23  25  1   
 28  25  26  1   
 29  27  28  1   
@<TRIPOS>SUBSTRUCTURE
  1 ****  10 GROUP 4 **** **** 0
