@<TRIPOS>MOLECULE
CHEM153
33 34 1 0 0 
SMALL
USER_CHARGES


@<TRIPOS>ATOM
  1 H       -9.7820     0.6800    -0.6360 H.spc     1 <1>   0.1500 
  2 C       -8.7670     0.5590    -0.2610 C.ar  1 <1>  -0.1500 
  3 C       -7.8260     1.5750    -0.4570 C.ar  1 <1>  -0.1440 
  4 C       -8.1990     2.8150    -1.2150 C.3   1 <1>   0.1440 
  5 H       -7.6140     3.6740    -0.8700 H.spc     1 <1>   0.0000 
  6 H       -9.2560     3.0610    -1.0670 H.spc     1 <1>   0.0000 
  7 H       -8.0160     2.6690    -2.2840 H.spc     1 <1>   0.0000 
  8 C       -6.5120     1.4020     0.0090 C.ar  1 <1>  -0.1500 
  9 H       -5.7700     2.1780    -0.1550 H.spc     1 <1>   0.1500 
 10 C       -6.1530     0.2190     0.6890 C.ar  1 <1>   0.0000 
 11 C       -4.9390    -0.2640     1.2770 C.2   1 <1>  -0.1810 
 12 C       -3.6230     0.4440     1.3160 C.3   1 <1>   0.1810 
 13 H       -3.7850     1.5010     1.5630 H.spc     1 <1>   0.0000 
 14 H       -3.0090     0.0360     2.1300 H.spc     1 <1>   0.0000 
 15 C       -2.8610     0.3290    -0.0060 C.3   1 <1>   0.3560 
 16 H       -2.6770    -0.7260    -0.2340 H.spc     1 <1>   0.0000 
 17 H       -3.4490     0.7640    -0.8220 H.spc     1 <1>   0.0000 
 18 N       -1.5800     1.0560     0.1000 N.am  1 <1>  -0.9140 
 19 H       -1.6480     2.0570     0.2990 H.spc     1 <1>   0.4200 
 20 S       -0.4230     0.7700    -1.0860 S.o2  1 <1>   1.3330 
 21 O        0.4920     1.8880    -1.0160 O.2   1 <1>  -0.6500 
 22 O       -1.1030     0.4210    -2.3120 O.2   1 <1>  -0.6500 
 23 C        0.4050    -0.6670    -0.4400 C.3   1 <1>   0.1050 
 24 H       -0.3010    -1.4980    -0.3980 H.spc     1 <1>   0.0000 
 25 H        1.2270    -0.9130    -1.1160 H.spc     1 <1>   0.0000 
 26 H        0.7980    -0.4330     0.5510 H.spc     1 <1>   0.0000 
 27 C       -5.2160    -1.5110     1.8010 C.2   1 <1>  -0.3020 
 28 H       -4.5910    -2.2180     2.3300 H.spc     1 <1>   0.1500 
 29 N       -6.5320    -1.7980     1.5560 N.pl3 1 <1>   0.0330 
 30 H       -7.0060    -2.6470     1.8310 H.spc     1 <1>   0.2700 
 31 C       -7.1260    -0.7610     0.8750 C.ar  1 <1>  -0.1520 
 32 C       -8.4380    -0.6220     0.4120 C.ar  1 <1>  -0.1500 
 33 H       -9.1790    -1.3990     0.5620 H.spc     1 <1>   0.1500 
@<TRIPOS>BOND
  1   1   2  1   
  2   2   3  ar  
  3   2  32  ar  
  4   3   4  1   
  5   3   8  ar  
  6   4   5  1   
  7   4   6  1   
  8   4   7  1   
  9   8   9  1   
 10   8  10  ar  
 11  10  11  1   
 12  10  31  ar  
 13  11  12  1   
 14  11  27  2   
 15  12  13  1   
 16  12  14  1   
 17  12  15  1   
 18  15  16  1   
 19  15  17  1   
 20  15  18  1   
 21  18  19  1   
 22  18  20  am  
 23  20  21  2   
 24  20  22  2   
 25  20  23  1   
 26  23  24  1   
 27  23  25  1   
 28  23  26  1   
 29  27  28  1   
 30  27  29  1   
 31  29  30  1   
 32  29  31  1   
 33  31  32  ar  
 34  32  33  1   
@<TRIPOS>SUBSTRUCTURE
  1 ****  11 GROUP 4 **** **** 0
