@<TRIPOS>MOLECULE
CHEM070
33 34 1 0 0 
SMALL
USER_CHARGES


@<TRIPOS>ATOM
  1 H       -8.6590    -3.8590    -0.1230 H.spc     1 <1>   0.1500 
  2 C       -7.5770    -3.7640    -0.1300 C.ar  1 <1>  -0.1500 
  3 C       -6.8290    -4.3740    -1.1340 C.ar  1 <1>  -0.1500 
  4 H       -7.3280    -4.9460    -1.9110 H.spc     1 <1>   0.1500 
  5 C       -5.4380    -4.2510    -1.1440 C.ar  1 <1>  -0.1500 
  6 H       -4.8720    -4.7360    -1.9360 H.spc     1 <1>   0.1500 
  7 C       -4.7780    -3.5150    -0.1490 C.ar  1 <1>  -0.1440 
  8 C       -3.2580    -3.3880    -0.1850 C.3   1 <1>   0.1440 
  9 H       -2.8960    -3.9330    -1.0660 H.spc     1 <1>   0.0000 
 10 C       -2.8710    -1.9150    -0.3700 C.3   1 <1>   0.0000 
 11 H       -1.7990    -1.7950    -0.5380 H.spc     1 <1>   0.0000 
 12 H       -3.1360    -1.3100     0.5050 H.spc     1 <1>   0.0000 
 13 H       -3.3850    -1.4840    -1.2370 H.spc     1 <1>   0.0000 
 14 C       -2.6330    -4.0180     1.0800 C.3   1 <1>   0.0000 
 15 H       -2.6840    -3.3010     1.9090 H.spc     1 <1>   0.0000 
 16 H       -3.2280    -4.8950     1.3690 H.spc     1 <1>   0.0000 
 17 C       -1.1880    -4.4950     0.9200 C.3   1 <1>   0.5600 
 18 H       -0.8650    -4.9330     1.8720 H.spc     1 <1>   0.0000 
 19 O       -0.2840    -3.4310     0.6180 O.3   1 <1>  -0.5600 
 20 C        0.3620    -3.8120    -0.6000 C.3   1 <1>   0.2800 
 21 H       -0.1610    -3.3130    -1.4220 H.spc     1 <1>   0.0000 
 22 H        1.4050    -3.4840    -0.6000 H.spc     1 <1>   0.0000 
 23 C        0.1850    -5.3100    -0.6880 C.3   1 <1>   0.2800 
 24 H        0.1560    -5.6530    -1.7270 H.spc     1 <1>   0.0000 
 25 C        1.2560    -6.0870     0.0690 C.3   1 <1>   0.0000 
 26 H        1.0200    -7.1570     0.0640 H.spc     1 <1>   0.0000 
 27 H        1.3170    -5.7840     1.1190 H.spc     1 <1>   0.0000 
 28 H        2.2400    -5.9440    -0.3890 H.spc     1 <1>   0.0000 
 29 O       -1.0920    -5.5170    -0.0810 O.3   1 <1>  -0.5600 
 30 C       -5.5440    -2.9090     0.8590 C.ar  1 <1>  -0.1500 
 31 H       -5.0640    -2.3330     1.6460 H.spc     1 <1>   0.1500 
 32 C       -6.9350    -3.0320     0.8670 C.ar  1 <1>  -0.1500 
 33 H       -7.5170    -2.5560     1.6510 H.spc     1 <1>   0.1500 
@<TRIPOS>BOND
  1   1   2  1   
  2   2   3  ar  
  3   2  32  ar  
  4   3   4  1   
  5   3   5  ar  
  6   5   6  1   
  7   5   7  ar  
  8   7   8  1   
  9   7  30  ar  
 10   8   9  1   
 11   8  10  1   
 12   8  14  1   
 13  10  11  1   
 14  10  12  1   
 15  10  13  1   
 16  14  15  1   
 17  14  16  1   
 18  14  17  1   
 19  17  18  1   
 20  17  19  1   
 21  17  29  1   
 22  19  20  1   
 23  20  21  1   
 24  20  22  1   
 25  20  23  1   
 26  23  24  1   
 27  23  25  1   
 28  23  29  1   
 29  25  26  1   
 30  25  27  1   
 31  25  28  1   
 32  30  31  1   
 33  30  32  ar  
 34  32  33  1   
@<TRIPOS>SUBSTRUCTURE
  1 ****   8 GROUP 4 **** **** 0
