@<TRIPOS>MOLECULE
CHEM055
16 16 1 0 0 
SMALL
USER_CHARGES


@<TRIPOS>ATOM
  1 H        0.3410     3.3280     0.2210 H.spc     1 <1>   0.3700 
  2 N       -0.0870     2.4240     0.0470 N.am  1 <1>  -0.3680 
  3 N       -1.4080     2.4310    -0.2880 N.2   1 <1>  -0.5120 
  4 C       -2.0360     1.2950    -0.2840 C.2   1 <1>   0.3280 
  5 C       -3.4970     1.2670    -0.6390 C.3   1 <1>   0.0610 
  6 H       -3.8340     2.2540    -0.9670 H.spc     1 <1>   0.0000 
  7 H       -4.0760     0.9620     0.2370 H.spc     1 <1>   0.0000 
  8 H       -3.6600     0.5470    -1.4460 H.spc     1 <1>   0.0000 
  9 C       -1.3890     0.0060     0.1490 C.3   1 <1>   0.0610 
 10 H       -1.9000    -0.8440    -0.3140 H.spc     1 <1>   0.0000 
 11 H       -1.5090    -0.0750     1.2350 H.spc     1 <1>   0.0000 
 12 C        0.0730     0.0130    -0.2320 C.3   1 <1>   0.0610 
 13 H        0.1900    -0.1010    -1.3160 H.spc     1 <1>   0.0000 
 14 H        0.5970    -0.8130     0.2600 H.spc     1 <1>   0.0000 
 15 C        0.7160     1.3150     0.1580 C.2   1 <1>   0.5690 
 16 O        1.8970     1.3960     0.4840 O.2   1 <1>  -0.5700 
@<TRIPOS>BOND
  1   1   2  1   
  2   2   3  1   
  3   2  15  am  
  4   3   4  2   
  5   4   5  1   
  6   4   9  1   
  7   5   6  1   
  8   5   7  1   
  9   5   8  1   
 10   9  10  1   
 11   9  11  1   
 12   9  12  1   
 13  12  13  1   
 14  12  14  1   
 15  12  15  1   
 16  15  16  2   
@<TRIPOS>SUBSTRUCTURE
  1 ****   2 GROUP 4 **** **** 0
