@<TRIPOS>MOLECULE
CHEM111
28 30 1 0 0 
SMALL
USER_CHARGES


@<TRIPOS>ATOM
  1 H        0.1550     6.4980    -0.0570 H.spc     1 <1>   0.0000 
  2 C        0.8980     5.6940    -0.0300 C.3   1 <1>   0.1800 
  3 H        1.5540     5.8180    -0.8980 H.spc     1 <1>   0.0000 
  4 H        1.4930     5.8180     0.8800 H.spc     1 <1>   0.0000 
  5 C        0.2530     4.3640    -0.0500 C.2   1 <1>  -0.0400 
  6 O       -1.0990     4.3720     0.0220 O.3   1 <1>  -0.0190 
  7 N       -1.5700     3.0840    -0.0110 N.2   1 <1>  -0.4100 
  8 C       -0.4950     2.2890    -0.0900 C.2   1 <1>   0.1080 
  9 C       -0.6790     0.8020    -0.1070 C.3   1 <1>   0.1810 
 10 H       -0.4280     0.4270    -1.1070 H.spc     1 <1>   0.0000 
 11 H        0.0200     0.3500     0.6060 H.spc     1 <1>   0.0000 
 12 C       -2.0770     0.3130     0.2500 C.3   1 <1>   0.0000 
 13 H       -2.3710     0.6460     1.2510 H.spc     1 <1>   0.0000 
 14 H       -2.8230     0.6770    -0.4650 H.spc     1 <1>   0.0000 
 15 H       -2.1080    -0.7820     0.2360 H.spc     1 <1>   0.0000 
 16 C        0.7130     3.0610    -0.1390 C.2   1 <1>  -0.0860 
 17 C        2.1040     2.6920    -0.2430 C.2   1 <1>   0.6770 
 18 N        3.0600     3.5430     0.0220 N.2   1 <1>  -0.6520 
 19 N        4.2140     2.8640    -0.1940 N.pl3 1 <1>   0.5050 
 20 C        5.5390     3.1800    -0.0930 C.2   1 <1>   0.0070 
 21 C        6.0320     4.5040     0.3300 C.3   1 <1>   0.1800 
 22 H        7.1260     4.5190     0.3490 H.spc     1 <1>   0.0000 
 23 H        5.6940     5.2820    -0.3610 H.spc     1 <1>   0.0000 
 24 H        5.6720     4.7500     1.3340 H.spc     1 <1>   0.0000 
 25 N        6.2490     2.1120    -0.4330 N.2   1 <1>  -0.3380 
 26 N        5.3700     1.0810    -0.7620 N.2   1 <1>  -0.3380 
 27 C        4.1780     1.5780    -0.6050 C.2   1 <1>   0.2420 
 28 S        2.5630     1.0610    -0.7710 S.3   1 <1>  -0.1970 
@<TRIPOS>BOND
  1   1   2  1   
  2   2   3  1   
  3   2   4  1   
  4   2   5  1   
  5   5   6  1   
  6   5  16  2   
  7   6   7  1   
  8   7   8  2   
  9   8   9  1   
 10   8  16  1   
 11   9  10  1   
 12   9  11  1   
 13   9  12  1   
 14  12  13  1   
 15  12  14  1   
 16  12  15  1   
 17  16  17  1   
 18  17  18  2   
 19  17  28  1   
 20  18  19  1   
 21  19  20  1   
 22  19  27  1   
 23  20  21  1   
 24  20  25  2   
 25  21  22  1   
 26  21  23  1   
 27  21  24  1   
 28  25  26  1   
 29  26  27  2   
 30  27  28  1   
@<TRIPOS>SUBSTRUCTURE
  1 ****  17 GROUP 4 **** **** 0
