@<TRIPOS>MOLECULE
CHEM061
27 28 1 0 0 
SMALL
USER_CHARGES


@<TRIPOS>ATOM
  1 H        1.0480    -1.8430    -0.1760 H.spc     1 <1>   0.4500 
  2 O        1.9110    -1.4620     0.0360 O.3   1 <1>  -0.5320 
  3 C        1.8360    -0.0840     0.0100 C.ar  1 <1>   0.0820 
  4 C        0.5820     0.5500     0.0300 C.ar  1 <1>  -0.1440 
  5 C       -0.7090    -0.2150     0.0890 C.3   1 <1>   0.1440 
  6 H       -1.5690     0.4520     0.2190 H.spc     1 <1>   0.0000 
  7 H       -0.8590    -0.7760    -0.8390 H.spc     1 <1>   0.0000 
  8 H       -0.7050    -0.9060     0.9380 H.spc     1 <1>   0.0000 
  9 C        0.5460     1.9460    -0.0120 C.ar  1 <1>  -0.1500 
 10 H       -0.4160     2.4570    -0.0040 H.spc     1 <1>   0.1500 
 11 C        1.7260     2.7010    -0.0570 C.ar  1 <1>  -0.1440 
 12 C        1.6160     4.2030    -0.0960 C.3   1 <1>   0.1440 
 13 H        2.0800     4.5950    -1.0070 H.spc     1 <1>   0.0000 
 14 H        2.0980     4.6430     0.7830 H.spc     1 <1>   0.0000 
 15 H        0.5710     4.5320    -0.0950 H.spc     1 <1>   0.0000 
 16 C        2.9850     2.0410    -0.0620 C.ar  1 <1>   0.0000 
 17 C        4.2110     2.7330    -0.1020 C.ar  1 <1>  -0.1500 
 18 H        4.2410     3.8190    -0.1270 H.spc     1 <1>   0.1500 
 19 C        5.4200     2.0460    -0.1100 C.ar  1 <1>  -0.1500 
 20 H        6.3610     2.5850    -0.1400 H.spc     1 <1>   0.1500 
 21 C        5.3880     0.6650    -0.0790 C.ar  1 <1>   0.1660 
 22 C        6.6620    -0.1240    -0.0870 C.3   1 <1>   0.1440 
 23 H        6.4550    -1.1990    -0.0620 H.spc     1 <1>   0.0000 
 24 H        7.2340     0.0910    -0.9960 H.spc     1 <1>   0.0000 
 25 H        7.2680     0.1270     0.7890 H.spc     1 <1>   0.0000 
 26 N        4.2310    -0.0300    -0.0410 N.ar  1 <1>  -0.6200 
 27 C        3.0470     0.6290    -0.0290 C.ar  1 <1>   0.3100 
@<TRIPOS>BOND
  1   1   2  1   
  2   2   3  1   
  3   3   4  ar  
  4   3  27  ar  
  5   4   5  1   
  6   4   9  ar  
  7   5   6  1   
  8   5   7  1   
  9   5   8  1   
 10   9  10  1   
 11   9  11  ar  
 12  11  12  1   
 13  11  16  ar  
 14  12  13  1   
 15  12  14  1   
 16  12  15  1   
 17  16  17  ar  
 18  16  27  ar  
 19  17  18  1   
 20  17  19  ar  
 21  19  20  1   
 22  19  21  ar  
 23  21  22  1   
 24  21  26  ar  
 25  22  23  1   
 26  22  24  1   
 27  22  25  1   
 28  26  27  ar  
@<TRIPOS>SUBSTRUCTURE
  1 ****  27 GROUP 4 **** **** 0
