@<TRIPOS>MOLECULE
CHEM004
27 28 1 0 0 
SMALL
USER_CHARGES


@<TRIPOS>ATOM
  1 H        2.2110     4.9770    -2.2460 H.spc      1 <1>   0.4000 
  2 O        2.6790     4.1690    -1.9750 O.3   1 <1>  -0.6800 
  3 C        2.0340     3.6880    -0.7960 C.3   1 <1>   0.4610 
  4 H        0.9690     3.5890    -1.0360 H.spc      1 <1>   0.0000 
  5 C        2.5730     2.3510    -0.3950 C.2   1 <1>  -0.1810 
  6 C        1.8550     1.3020     0.1600 C.2   1 <1>  -0.0400 
  7 C        0.4310     1.1270     0.5210 C.3   1 <1>   0.1800 
  8 H       -0.2090     1.3110    -0.3470 H.spc      1 <1>   0.0000 
  9 H        0.1510     1.8290     1.3130 H.spc      1 <1>   0.0000 
 10 H        0.2320     0.1120     0.8790 H.spc      1 <1>   0.0000 
 11 O        2.6680     0.2400     0.4110 O.3   1 <1>  -0.2800 
 12 C        3.9190     0.5900     0.0200 C.ar  1 <1>   0.1400 
 13 C        5.0440    -0.2250     0.1090 C.ar  1 <1>  -0.1500 
 14 H        4.9690    -1.2290     0.5140 H.spc      1 <1>   0.1500 
 15 C        6.2570     0.3170    -0.3490 C.ar  1 <1>   0.0730 
 16 C        7.4320    -0.5030    -0.2690 C.1   1 <1>   0.4840 
 17 N        8.3720    -1.1800    -0.1960 N.1   1 <1>  -0.5570 
 18 C        6.3110     1.6220    -0.8680 C.ar  1 <1>   0.0730 
 19 C        7.5440     2.1880    -1.3380 C.1   1 <1>   0.4840 
 20 N        8.5350     2.6570    -1.7180 N.1   1 <1>  -0.5570 
 21 C        5.1470     2.4130    -0.9380 C.ar  1 <1>  -0.1500 
 22 H        5.1800     3.4220    -1.3460 H.spc      1 <1>   0.1500 
 23 C        3.9240     1.8830    -0.4850 C.ar  1 <1>   0.0000 
 24 C        2.2040     4.7240     0.3100 C.3   1 <1>   0.0000 
 25 H        3.2630     4.8970     0.5310 H.spc      1 <1>   0.0000 
 26 H        1.7070     4.4100     1.2340 H.spc      1 <1>   0.0000 
 27 H        1.7860     5.6880     0.0000 H.spc      1 <1>   0.0000 
@<TRIPOS>BOND
  1   1   2  1   
  2   2   3  1   
  3   3   4  1   
  4   3   5  1   
  5   3  24  1   
  6   5   6  2   
  7   5  23  1   
  8   6   7  1   
  9   6  11  1   
 10   7   8  1   
 11   7   9  1   
 12   7  10  1   
 13  11  12  1   
 14  12  13  ar  
 15  12  23  ar  
 16  13  14  1   
 17  13  15  ar  
 18  15  16  1   
 19  15  18  ar  
 20  16  17  3   
 21  18  19  1   
 22  18  21  ar  
 23  19  20  3   
 24  21  22  1   
 25  21  23  ar  
 26  24  25  1   
 27  24  26  1   
 28  24  27  1   
@<TRIPOS>SUBSTRUCTURE
  1 ****  23 GROUP 4 **** **** 0
