@<TRIPOS>MOLECULE
CHEM079
36 37 1 0 0 
SMALL
USER_CHARGES


@<TRIPOS>ATOM
  1 H       -3.3960    -1.3150     2.0940 H.spc     1 <1>   0.5000 
  2 O       -3.3410    -2.1350     1.5610 O.3   1 <1>  -0.6500 
  3 C       -4.3940    -2.0440     0.7290 C.2   1 <1>   0.6340 
  4 O       -5.2090    -1.1440     0.8250 O.2   1 <1>  -0.5700 
  5 C       -4.5070    -3.2070    -0.1670 C.ar  1 <1>   0.0860 
  6 C       -5.7500    -3.8580    -0.2040 C.ar  1 <1>  -0.1500 
  7 H       -6.5710    -3.5040     0.4160 H.spc     1 <1>   0.1500 
  8 C       -5.9390    -4.9600    -1.0380 C.ar  1 <1>  -0.1500 
  9 H       -6.9010    -5.4650    -1.0640 H.spc     1 <1>   0.1500 
 10 C       -4.8940    -5.4010    -1.8470 C.ar  1 <1>  -0.1500 
 11 H       -5.0390    -6.2510    -2.5090 H.spc     1 <1>   0.1500 
 12 C       -3.6640    -4.7390    -1.8240 C.ar  1 <1>  -0.1500 
 13 H       -2.8630    -5.0710    -2.4800 H.spc     1 <1>   0.1500 
 14 C       -3.4490    -3.6390    -0.9820 C.ar  1 <1>   0.1790 
 15 N       -2.2100    -2.9780    -1.0610 N.2   1 <1>  -0.6290 
 16 C       -1.3010    -3.3770    -0.2260 C.2   1 <1>   0.3040 
 17 H       -1.5010    -4.1910     0.4970 H.spc     1 <1>   0.0600 
 18 C        0.0400    -2.7670    -0.1790 C.ar  1 <1>   0.0860 
 19 C        0.3970    -1.7430    -1.0500 C.ar  1 <1>  -0.1500 
 20 H       -0.3100    -1.3750    -1.7890 H.spc     1 <1>   0.1500 
 21 C        1.6780    -1.1790    -0.9740 C.ar  1 <1>  -0.1500 
 22 H        1.9060    -0.3850    -1.6800 H.spc     1 <1>   0.1500 
 23 C        2.6370    -1.6100    -0.0390 C.ar  1 <1>   0.1000 
 24 N        3.9060    -1.0460     0.0310 N.pl3 1 <1>  -0.8380 
 25 C        4.9160    -1.5680     0.9430 C.3   1 <1>   0.3690 
 26 H        5.0980    -2.6330     0.7570 H.spc     1 <1>   0.0000 
 27 H        4.6080    -1.4280     1.9850 H.spc     1 <1>   0.0000 
 28 H        5.8780    -1.0600     0.8230 H.spc     1 <1>   0.0000 
 29 C        4.2730     0.0900    -0.8060 C.3   1 <1>   0.3690 
 30 H        5.2790     0.4570    -0.5790 H.spc     1 <1>   0.0000 
 31 H        4.2650    -0.1900    -1.8650 H.spc     1 <1>   0.0000 
 32 H        3.5890     0.9310    -0.6470 H.spc     1 <1>   0.0000 
 33 C        2.2350    -2.6490     0.8220 C.ar  1 <1>  -0.1500 
 34 H        2.9130    -3.0360     1.5770 H.spc     1 <1>   0.1500 
 35 C        0.9580    -3.2240     0.7610 C.ar  1 <1>  -0.1500 
 36 H        0.7010    -4.0190     1.4540 H.spc     1 <1>   0.1500 
@<TRIPOS>BOND
  1   1   2  1   
  2   2   3  1   
  3   3   4  2   
  4   3   5  1   
  5   5   6  ar  
  6   5  14  ar  
  7   6   7  1   
  8   6   8  ar  
  9   8   9  1   
 10   8  10  ar  
 11  10  11  1   
 12  10  12  ar  
 13  12  13  1   
 14  12  14  ar  
 15  14  15  1   
 16  15  16  2   
 17  16  17  1   
 18  16  18  1   
 19  18  19  ar  
 20  18  35  ar  
 21  19  20  1   
 22  19  21  ar  
 23  21  22  1   
 24  21  23  ar  
 25  23  24  1   
 26  23  33  ar  
 27  24  25  1   
 28  24  29  1   
 29  25  26  1   
 30  25  27  1   
 31  25  28  1   
 32  29  30  1   
 33  29  31  1   
 34  29  32  1   
 35  33  34  1   
 36  33  35  ar  
 37  35  36  1   
@<TRIPOS>SUBSTRUCTURE
  1 ****  16 GROUP 4 **** **** 0
