@<TRIPOS>MOLECULE
CHEM092
21 21 1 0 0 
SMALL
USER_CHARGES


@<TRIPOS>ATOM
  1 H        2.9240     1.6560    -0.7270 H.spc     1 <1>   0.4000 
  2 O        2.6550     0.8310    -1.1680 O.3   1 <1>  -0.6800 
  3 C        1.9340     0.0550    -0.2100 C.3   1 <1>   0.4800 
  4 C        2.7930    -0.1170     0.9760 C.1   1 <1>  -0.2000 
  5 C        3.4910    -0.2590     1.9420 C.1   1 <1>   0.0380 
  6 BR       4.5660    -0.4820     3.4420 Br    1 <1>  -0.0380 
  7 C        0.6430     0.8090     0.1430 C.3   1 <1>   0.0000 
  8 H        0.8740     1.7350     0.6870 H.spc     1 <1>   0.0000 
  9 H        0.1490     1.1320    -0.7830 H.spc     1 <1>   0.0000 
 10 C       -0.3360    -0.0320     0.9610 C.3   1 <1>   0.0000 
 11 H        0.0760    -0.2190     1.9600 H.spc     1 <1>   0.0000 
 12 H       -1.2680     0.5270     1.1040 H.spc     1 <1>   0.0000 
 13 C       -0.6400    -1.3630     0.2790 C.3   1 <1>   0.0000 
 14 H       -1.1960    -1.1770    -0.6490 H.spc     1 <1>   0.0000 
 15 H       -1.2880    -1.9680     0.9220 H.spc     1 <1>   0.0000 
 16 C        0.6340    -2.1390    -0.0430 C.3   1 <1>   0.0000 
 17 H        0.3780    -3.0470    -0.6000 H.spc     1 <1>   0.0000 
 18 H        1.1100    -2.4650     0.8900 H.spc     1 <1>   0.0000 
 19 C        1.6140    -1.2990    -0.8610 C.3   1 <1>   0.0000 
 20 H        2.5350    -1.8710    -1.0320 H.spc     1 <1>   0.0000 
 21 H        1.1890    -1.1270    -1.8600 H.spc     1 <1>   0.0000 
@<TRIPOS>BOND
  1   1   2  1   
  2   2   3  1   
  3   3   4  1   
  4   3   7  1   
  5   3  19  1   
  6   4   5  3   
  7   5   6  1   
  8   7   8  1   
  9   7   9  1   
 10   7  10  1   
 11  10  11  1   
 12  10  12  1   
 13  10  13  1   
 14  13  14  1   
 15  13  15  1   
 16  13  16  1   
 17  16  17  1   
 18  16  18  1   
 19  16  19  1   
 20  19  20  1   
 21  19  21  1   
@<TRIPOS>SUBSTRUCTURE
  1 ****   3 GROUP 4 **** **** 0
