@<TRIPOS>MOLECULE
CHEM151
27 27 1 0 0 
SMALL
USER_CHARGES


@<TRIPOS>ATOM
  1 H        1.3200     3.2590    -0.8440 H.spc     1 <1>   0.2700 
  2 N        0.5960     2.6260    -0.5290 N.pl3 1 <1>   0.0330 
  3 C       -0.7160     2.9780    -0.3180 C.2   1 <1>  -0.3320 
  4 C       -1.1360     4.3860    -0.5530 C.3   1 <1>   0.1800 
  5 H       -0.2920     5.0100    -0.8690 H.spc     1 <1>   0.0000 
  6 H       -1.8910     4.4390    -1.3420 H.spc     1 <1>   0.0000 
  7 H       -1.5400     4.8270     0.3620 H.spc     1 <1>   0.0000 
  8 C       -1.3990     1.8400     0.1080 C.2   1 <1>  -0.0860 
  9 C       -2.8250     1.7080     0.4610 C.2   1 <1>   0.5950 
 10 O       -3.2820     0.6480     0.8970 O.2   1 <1>  -0.5700 
 11 C       -3.7590     2.8770     0.2900 C.3   1 <1>   0.0610 
 12 H       -4.7770     2.5690     0.5520 H.spc     1 <1>   0.0000 
 13 H       -3.7690     3.2050    -0.7520 H.spc     1 <1>   0.0000 
 14 H       -3.4730     3.6910     0.9590 H.spc     1 <1>   0.0000 
 15 C       -0.4230     0.7730     0.1490 C.2   1 <1>  -0.1810 
 16 C       -0.6840    -0.6400     0.5520 C.3   1 <1>   0.1810 
 17 H       -1.0320    -0.6830     1.5890 H.spc     1 <1>   0.0000 
 18 H       -1.4440    -1.0880    -0.0960 H.spc     1 <1>   0.0000 
 19 H        0.2170    -1.2570     0.4800 H.spc     1 <1>   0.0000 
 20 C        0.7920     1.3010    -0.2540 C.2   1 <1>  -0.3320 
 21 C        2.1400     0.6720    -0.4070 C.3   1 <1>   0.1800 
 22 H        2.7370     1.2370    -1.1330 H.spc     1 <1>   0.0000 
 23 H        2.0320    -0.3400    -0.8140 H.spc     1 <1>   0.0000 
 24 C        2.8850     0.6140     0.9170 C.3   1 <1>   0.0000 
 25 H        3.8690     0.1560     0.7770 H.spc     1 <1>   0.0000 
 26 H        3.0320     1.6170     1.3330 H.spc     1 <1>   0.0000 
 27 H        2.3370     0.0210     1.6570 H.spc     1 <1>   0.0000 
@<TRIPOS>BOND
  1   1   2  1   
  2   2   3  1   
  3   2  20  1   
  4   3   4  1   
  5   3   8  2   
  6   4   5  1   
  7   4   6  1   
  8   4   7  1   
  9   8   9  1   
 10   8  15  1   
 11   9  10  2   
 12   9  11  1   
 13  11  12  1   
 14  11  13  1   
 15  11  14  1   
 16  15  16  1   
 17  15  20  2   
 18  16  17  1   
 19  16  18  1   
 20  16  19  1   
 21  20  21  1   
 22  21  22  1   
 23  21  23  1   
 24  21  24  1   
 25  24  25  1   
 26  24  26  1   
 27  24  27  1   
@<TRIPOS>SUBSTRUCTURE
  1 ****   8 GROUP 4 **** **** 0
