@<TRIPOS>MOLECULE
CHEM050
28 30 1 0 0 
SMALL
USER_CHARGES


@<TRIPOS>ATOM
  1 H        2.4270    -4.5480    -2.3560 H.spc     1 <1>   0.1500 
  2 C        1.5480    -4.6920    -1.7340 C.ar  1 <1>   0.1600 
  3 N        1.3060    -3.7070    -0.8440 N.ar  1 <1>  -0.6200 
  4 C        0.2170    -3.8580    -0.0540 C.ar  1 <1>   0.1600 
  5 H        0.0540    -3.0440     0.6490 H.spc     1 <1>   0.1500 
  6 C       -0.6520    -4.9460    -0.1060 C.ar  1 <1>  -0.1440 
  7 C       -1.8270    -5.0150     0.8390 C.3   1 <1>   0.7040 
  8 H       -1.4300    -5.1110     1.8570 H.spc     1 <1>   0.0000 
  9 O       -2.6290    -6.1750     0.5920 O.3   1 <1>  -0.5600 
 10 C       -3.9880    -5.9640     0.9710 C.3   1 <1>   0.2800 
 11 H       -4.5180    -6.9210     0.8970 H.spc     1 <1>   0.0000 
 12 H       -4.0150    -5.6840     2.0320 H.spc     1 <1>   0.0000 
 13 C       -4.6090    -4.8980     0.0720 C.3   1 <1>   0.2910 
 14 S       -5.2270    -5.6050    -1.5090 S.3   1 <1>  -0.3710 
 15 C       -6.8510    -5.0310    -1.2510 C.2   1 <1>   0.7710 
 16 O       -7.7580    -5.1750    -2.0500 O.2   1 <1>  -0.5700 
 17 N       -6.9500    -4.4180    -0.0500 N.am  1 <1>  -0.4900 
 18 H       -7.8370    -4.0480     0.2550 H.spc     1 <1>   0.3700 
 19 C       -5.8410    -4.3150     0.7360 C.2   1 <1>   0.5690 
 20 O       -5.8700    -3.8020     1.8460 O.2   1 <1>  -0.5700 
 21 C       -3.5800    -3.8030    -0.2210 C.3   1 <1>   0.2800 
 22 H       -3.0840    -3.9290    -1.1910 H.spc     1 <1>   0.0000 
 23 H       -4.0410    -2.8080    -0.2300 H.spc     1 <1>   0.0000 
 24 O       -2.5700    -3.7900     0.7920 O.3   1 <1>  -0.5600 
 25 C       -0.3580    -5.9450    -1.0420 C.ar  1 <1>  -0.1500 
 26 H       -0.9890    -6.8260    -1.1310 H.spc     1 <1>   0.1500 
 27 C        0.7550    -5.8170    -1.8700 C.ar  1 <1>  -0.1500 
 28 H        0.9960    -6.5810    -2.6010 H.spc     1 <1>   0.1500 
@<TRIPOS>BOND
  1   1   2  1   
  2   2   3  ar  
  3   2  27  ar  
  4   3   4  ar  
  5   4   5  1   
  6   4   6  ar  
  7   6   7  1   
  8   6  25  ar  
  9   7   8  1   
 10   7   9  1   
 11   7  24  1   
 12   9  10  1   
 13  10  11  1   
 14  10  12  1   
 15  10  13  1   
 16  13  14  1   
 17  13  19  1   
 18  13  21  1   
 19  14  15  1   
 20  15  16  2   
 21  15  17  am  
 22  17  18  1   
 23  17  19  am  
 24  19  20  2   
 25  21  22  1   
 26  21  23  1   
 27  21  24  1   
 28  25  26  1   
 29  25  27  ar  
 30  27  28  1   
@<TRIPOS>SUBSTRUCTURE
  1 ****  21 GROUP 4 **** **** 0
