@<TRIPOS>MOLECULE
CHEM074
32 35 1 0 0 
SMALL
USER_CHARGES


@<TRIPOS>ATOM
  1 H       -1.8030    -2.1780     0.0730 H.spc     1 <1>   0.0600 
  2 C       -1.6790    -1.0840     0.0480 C.2   1 <1>   0.4760 
  3 N       -0.5390    -0.4800     0.0350 N.2   1 <1>  -0.4920 
  4 N        0.6040    -1.2160     0.0530 N.pl3 1 <1>  -0.0920 
  5 C        0.8490    -2.5850     0.0800 C.2   1 <1>   0.4400 
  6 H       -0.0080    -3.2710     0.0890 H.spc     1 <1>   0.0600 
  7 N        2.1100    -2.9580     0.0910 N.2   1 <1>  -0.6520 
  8 N        2.7030    -1.7150     0.0690 N.pl3 1 <1>   0.5050 
  9 C        3.9500    -1.1750     0.0640 C.2   1 <1>   0.2420 
 10 S        5.3880    -2.1250     0.0890 S.3   1 <1>  -0.2860 
 11 C        6.6420    -0.8250     0.0730 C.3   1 <1>   0.2300 
 12 H        7.6350    -1.2840     0.0890 H.spc     1 <1>   0.0000 
 13 H        6.5440    -0.1830     0.9530 H.spc     1 <1>   0.0000 
 14 H        6.5570    -0.2180    -0.8320 H.spc     1 <1>   0.0000 
 15 N        3.8440     0.1450     0.0380 N.2   1 <1>  -0.3380 
 16 N        2.4820     0.4750     0.0260 N.2   1 <1>  -0.3380 
 17 C        1.8380    -0.6630     0.0460 C.2   1 <1>   0.2700 
 18 C       -2.8940    -0.2950     0.0280 C.2   1 <1>  -0.0860 
 19 C       -2.9610     1.0850    -0.0050 C.2   1 <1>  -0.3020 
 20 H       -2.1760     1.8310    -0.0240 H.spc     1 <1>   0.1500 
 21 N       -4.2770     1.4550    -0.0130 N.pl3 1 <1>   0.0330 
 22 H       -4.6150     2.4080    -0.0360 H.spc     1 <1>   0.2700 
 23 C       -5.0830     0.3410     0.0140 C.ar  1 <1>  -0.1520 
 24 C       -6.4790     0.2420     0.0180 C.ar  1 <1>  -0.1500 
 25 H       -7.1120     1.1230    -0.0020 H.spc     1 <1>   0.1500 
 26 C       -7.0390    -1.0380     0.0490 C.ar  1 <1>  -0.1500 
 27 H       -8.1210    -1.1490     0.0530 H.spc     1 <1>   0.1500 
 28 C       -6.2320    -2.1720     0.0750 C.ar  1 <1>  -0.1500 
 29 H       -6.6890    -3.1590     0.0990 H.spc     1 <1>   0.1500 
 30 C       -4.8360    -2.0560     0.0710 C.ar  1 <1>  -0.1500 
 31 H       -4.2260    -2.9540     0.0920 H.spc     1 <1>   0.1500 
 32 C       -4.2440    -0.7750     0.0400 C.ar  1 <1>   0.0000 
@<TRIPOS>BOND
  1   1   2  1   
  2   2   3  2   
  3   2  18  1   
  4   3   4  1   
  5   4   5  1   
  6   4  17  1   
  7   5   6  1   
  8   5   7  2   
  9   7   8  1   
 10   8   9  1   
 11   8  17  1   
 12   9  10  1   
 13   9  15  2   
 14  10  11  1   
 15  11  12  1   
 16  11  13  1   
 17  11  14  1   
 18  15  16  1   
 19  16  17  2   
 20  18  19  2   
 21  18  32  1   
 22  19  20  1   
 23  19  21  1   
 24  21  22  1   
 25  21  23  1   
 26  23  24  ar  
 27  23  32  ar  
 28  24  25  1   
 29  24  26  ar  
 30  26  27  1   
 31  26  28  ar  
 32  28  29  1   
 33  28  30  ar  
 34  30  31  1   
 35  30  32  ar  
@<TRIPOS>SUBSTRUCTURE
  1 ****   3 GROUP 4 **** **** 0
