@<TRIPOS>MOLECULE
CHEM021
25 26 1 0 0 
SMALL
USER_CHARGES


@<TRIPOS>ATOM
  1 H       -3.0840     4.1410    -0.6730 H.spc      1 <1>   0.1500 
  2 C       -2.1540     3.6200    -0.4610 C.ar  1 <1>  -0.1500 
  3 C       -2.1390     2.2260    -0.3900 C.ar  1 <1>  -0.1500 
  4 H       -3.0590     1.6660    -0.5440 H.spc      1 <1>   0.1500 
  5 C       -0.9490     1.5490    -0.1220 C.ar  1 <1>  -0.1500 
  6 H       -0.9510     0.4630    -0.0640 H.spc      1 <1>   0.1500 
  7 C        0.2350     2.2680     0.0670 C.ar  1 <1>  -0.1440 
  8 C        0.2140     3.6690     0.0130 C.ar  1 <1>   0.0860 
  9 C       -0.9780     4.3450    -0.2570 C.ar  1 <1>  -0.1500 
 10 H       -1.0130     5.4280    -0.3190 H.spc      1 <1>   0.1500 
 11 C        1.5010     4.3730     0.2710 C.2   1 <1>   0.3030 
 12 C        1.4630     5.8370     0.6410 C.3   1 <1>   0.0610 
 13 H        2.4120     6.1340     1.0980 H.spc      1 <1>   0.0000 
 14 H        1.3080     6.4360    -0.2610 H.spc      1 <1>   0.0000 
 15 H        0.6640     6.0340     1.3600 H.spc      1 <1>   0.0000 
 16 N        2.6590     3.7990     0.2080 N.2   1 <1>  -0.6960 
 17 C        2.6910     2.3890    -0.2180 C.3   1 <1>   0.2460 
 18 H        2.6360     2.3610    -1.3150 H.spc      1 <1>   0.0000 
 19 C        4.0340     1.8030     0.2050 C.3   1 <1>   0.0000 
 20 H        4.1250     0.7600    -0.1140 H.spc      1 <1>   0.0000 
 21 H        4.8600     2.3680    -0.2400 H.spc      1 <1>   0.0000 
 22 H        4.1590     1.8420     1.2930 H.spc      1 <1>   0.0000 
 23 C        1.5350     1.5840     0.3840 C.3   1 <1>   0.1440 
 24 H        1.6320     1.5100     1.4740 H.spc      1 <1>   0.0000 
 25 H        1.5430     0.5670    -0.0250 H.spc      1 <1>   0.0000 
@<TRIPOS>BOND
  1   1   2  1   
  2   2   3  ar  
  3   2   9  ar  
  4   3   4  1   
  5   3   5  ar  
  6   5   6  1   
  7   5   7  ar  
  8   7   8  ar  
  9   7  23  1   
 10   8   9  ar  
 11   8  11  1   
 12   9  10  1   
 13  11  12  1   
 14  11  16  2   
 15  12  13  1   
 16  12  14  1   
 17  12  15  1   
 18  16  17  1   
 19  17  18  1   
 20  17  19  1   
 21  17  23  1   
 22  19  20  1   
 23  19  21  1   
 24  19  22  1   
 25  23  24  1   
 26  23  25  1   
@<TRIPOS>SUBSTRUCTURE
  1 ****   8 GROUP 4 **** **** 0
