@<TRIPOS>MOLECULE
CHEM057
28 29 1 0 0 
SMALL
USER_CHARGES


@<TRIPOS>ATOM
  1 H       -0.0350    -2.2250     0.4620 H.spc     1 <1>   0.5000 
  2 O        0.5370    -2.0250    -0.3100 O.3   1 <1>  -0.6500 
  3 C        1.7140    -1.6380     0.2230 C.2   1 <1>   0.6590 
  4 O        1.8650    -1.6540     1.4350 O.2   1 <1>  -0.5700 
  5 C        2.7720    -1.3100    -0.8330 C.3   1 <1>   0.3310 
  6 H        2.9760    -2.2460    -1.3680 H.spc     1 <1>   0.0000 
  7 N        4.0380    -0.7710    -0.2930 N.3   1 <1>  -0.8100 
  8 C        4.7470    -1.5980     0.6630 C.3   1 <1>   0.7300 
  9 H        4.5740    -2.6630     0.4670 H.spc     1 <1>   0.0000 
 10 O        4.3930    -1.3290     2.0030 O.3   1 <1>  -0.6800 
 11 H        3.4370    -1.5150     2.0710 H.spc     1 <1>   0.4000 
 12 C        6.2250    -1.3750     0.5680 C.2   1 <1>  -0.3320 
 13 C        7.2270    -1.4460     1.5210 C.2   1 <1>  -0.1500 
 14 H        7.0730    -1.6700     2.5700 H.spc     1 <1>   0.1500 
 15 C        8.4620    -1.1770     0.8810 C.2   1 <1>  -0.1500 
 16 H        9.4360    -1.1550     1.3490 H.spc     1 <1>   0.1500 
 17 C        8.1900    -0.9490    -0.4480 C.2   1 <1>  -0.0890 
 18 O        8.9680    -0.6590    -1.4800 O.3   1 <1>  -0.5130 
 19 H        9.8800    -0.6120    -1.1430 H.spc     1 <1>   0.4500 
 20 N        6.8400    -1.0640    -0.6250 N.pl3 1 <1>   0.0330 
 21 H        6.3600    -0.9330    -1.5040 H.spc     1 <1>   0.2700 
 22 C        3.8450     0.6120     0.1160 C.3   1 <1>   0.5000 
 23 H        4.7830     1.1750     0.1060 H.spc     1 <1>   0.0000 
 24 H        3.3820     0.7160     1.1030 H.spc     1 <1>   0.0000 
 25 S        2.6980     1.3440    -1.0890 S.3   1 <1>  -0.4600 
 26 C        2.2650    -0.2590    -1.8230 C.3   1 <1>   0.2300 
 27 H        2.7900    -0.3440    -2.7800 H.spc     1 <1>   0.0000 
 28 H        1.1890    -0.3010    -2.0110 H.spc     1 <1>   0.0000 
@<TRIPOS>BOND
  1   1   2  1   
  2   2   3  1   
  3   3   4  2   
  4   3   5  1   
  5   5   6  1   
  6   5   7  1   
  7   5  26  1   
  8   7   8  1   
  9   7  22  1   
 10   8   9  1   
 11   8  10  1   
 12   8  12  1   
 13  10  11  1   
 14  12  13  2   
 15  12  20  1   
 16  13  14  1   
 17  13  15  1   
 18  15  16  1   
 19  15  17  2   
 20  17  18  1   
 21  17  20  1   
 22  18  19  1   
 23  20  21  1   
 24  22  23  1   
 25  22  24  1   
 26  22  25  1   
 27  25  26  1   
 28  26  27  1   
 29  26  28  1   
@<TRIPOS>SUBSTRUCTURE
  1 ****   7 GROUP 4 **** **** 0
