@<TRIPOS>MOLECULE
CHEM059
20 20 1 0 0 
SMALL
USER_CHARGES


@<TRIPOS>ATOM
  1 H       -1.4840    -3.9860     0.2530 H.spc     1 <1>   0.0000 
  2 C       -0.6800    -3.2720     0.0510 C.3   1 <1>   0.2800 
  3 H       -0.7320    -3.0080    -1.0100 H.spc     1 <1>   0.0000 
  4 H       -0.8460    -2.3990     0.6910 H.spc     1 <1>   0.0000 
  5 O        0.5530    -3.9090     0.3620 O.3   1 <1>  -0.3630 
  6 C        1.7030    -3.1910     0.1790 C.ar  1 <1>   0.0820 
  7 C        2.8850    -3.8660     0.4970 C.ar  1 <1>   0.1900 
  8 F        2.8280    -5.1310     0.9460 F     1 <1>  -0.1900 
  9 C        4.1350    -3.2590     0.3610 C.ar  1 <1>   0.1900 
 10 F        5.2210    -3.9750     0.6880 F     1 <1>  -0.1900 
 11 C        4.2420    -1.9490    -0.1010 C.ar  1 <1>   0.0820 
 12 O        5.3920    -1.2310    -0.2840 O.3   1 <1>  -0.3630 
 13 C        6.6250    -1.8690     0.0240 C.3   1 <1>   0.2800 
 14 H        6.7890    -2.7410    -0.6160 H.spc     1 <1>   0.0000 
 15 H        7.4290    -1.1540    -0.1800 H.spc     1 <1>   0.0000 
 16 H        6.6790    -2.1320     1.0850 H.spc     1 <1>   0.0000 
 17 C        3.0600    -1.2740    -0.4190 C.ar  1 <1>   0.1900 
 18 F        3.1160    -0.0100    -0.8680 F     1 <1>  -0.1900 
 19 C        1.8090    -1.8810    -0.2830 C.ar  1 <1>   0.1900 
 20 F        0.7230    -1.1650    -0.6090 F     1 <1>  -0.1900 
@<TRIPOS>BOND
  1   1   2  1   
  2   2   3  1   
  3   2   4  1   
  4   2   5  1   
  5   5   6  1   
  6   6   7  ar  
  7   6  19  ar  
  8   7   8  1   
  9   7   9  ar  
 10   9  10  1   
 11   9  11  ar  
 12  11  12  1   
 13  11  17  ar  
 14  12  13  1   
 15  13  14  1   
 16  13  15  1   
 17  13  16  1   
 18  17  18  1   
 19  17  19  ar  
 20  19  20  1   
@<TRIPOS>SUBSTRUCTURE
  1 ****   7 GROUP 4 **** **** 0
