@<TRIPOS>MOLECULE
CHEM089
28 29 1 0 0 
SMALL
USER_CHARGES


@<TRIPOS>ATOM
  1 H        9.3900    -0.2830    -0.1510 H.spc     1 <1>   0.0000 
  2 C        8.8770    -0.6680    -1.0390 C.3   1 <1>   0.2700 
  3 H        9.5620    -1.3260    -1.5860 H.spc     1 <1>   0.0000 
  4 H        8.6540     0.1780    -1.6980 H.spc     1 <1>   0.0000 
  5 N        7.6440    -1.3680    -0.6770 N.pl3 1 <1>  -0.4870 
  6 N        6.6230    -0.5770    -0.2480 N.2   1 <1>  -0.5030 
  7 C        5.6460    -1.2470     0.2610 C.2   1 <1>   0.3890 
  8 C        5.6920    -2.7170     0.4670 C.2   1 <1>   0.3890 
  9 N        6.7580    -3.4260     0.3790 N.2   1 <1>  -0.6960 
 10 C        7.9500    -2.6290     0.0240 C.3   1 <1>   0.5160 
 11 H        8.5110    -2.4280     0.9450 H.spc     1 <1>   0.0000 
 12 H        8.5780    -3.2570    -0.6190 H.spc     1 <1>   0.0000 
 13 C        4.3410    -3.2070     0.8950 C.3   1 <1>   0.0610 
 14 H        4.3640    -3.3020     1.9890 H.spc     1 <1>   0.0000 
 15 C        3.9810    -4.5630     0.3030 C.3   1 <1>   0.0000 
 16 H        4.1570    -4.6060    -0.7760 H.spc     1 <1>   0.0000 
 17 H        2.9340    -4.8150     0.4990 H.spc     1 <1>   0.0000 
 18 H        4.6010    -5.3470     0.7520 H.spc     1 <1>   0.0000 
 19 C        3.4530    -1.9880     0.4730 C.3   1 <1>   0.4000 
 20 C        2.2170    -1.9620     1.2700 C.1   1 <1>   0.3570 
 21 N        1.2590    -1.9330     1.9200 N.1   1 <1>  -0.5570 
 22 C        3.1080    -2.0870    -0.9650 C.1   1 <1>   0.3570 
 23 N        2.8810    -2.1730    -2.0980 N.1   1 <1>  -0.5570 
 24 C        4.3330    -0.7250     0.7390 C.3   1 <1>   0.4610 
 25 C        4.4840    -0.4400     2.1730 C.1   1 <1>   0.3570 
 26 N        4.6070    -0.2930     3.3160 N.1   1 <1>  -0.5570 
 27 C        3.8880     0.4600     0.0070 C.1   1 <1>   0.3570 
 28 N        3.4740     1.3820    -0.5610 N.1   1 <1>  -0.5570 
@<TRIPOS>BOND
  1   1   2  1   
  2   2   3  1   
  3   2   4  1   
  4   2   5  1   
  5   5   6  1   
  6   5  10  1   
  7   6   7  2   
  8   7   8  1   
  9   7  24  1   
 10   8   9  2   
 11   8  13  1   
 12   9  10  1   
 13  10  11  1   
 14  10  12  1   
 15  13  14  1   
 16  13  15  1   
 17  13  19  1   
 18  15  16  1   
 19  15  17  1   
 20  15  18  1   
 21  19  20  1   
 22  19  22  1   
 23  19  24  1   
 24  20  21  3   
 25  22  23  3   
 26  24  25  1   
 27  24  27  1   
 28  25  26  3   
 29  27  28  3   
@<TRIPOS>SUBSTRUCTURE
  1 ****   7 GROUP 4 **** **** 0
