@<TRIPOS>MOLECULE
CHEM054
23 23 1 0 0 
SMALL
USER_CHARGES


@<TRIPOS>ATOM
  1 H       11.2850     3.4600    -1.7940 H.spc     1 <1>   0.1770 
  2 C       10.5660     2.8950    -1.2460 C.1   1 <1>  -0.1770 
  3 C        9.7530     2.2600    -0.6310 C.1   1 <1>  -0.2000 
  4 C        8.7550     1.4860     0.1190 C.3   1 <1>   0.4800 
  5 H        8.6830     0.4730    -0.2930 H.spc     1 <1>   0.0000 
  6 H        9.0530     1.4290     1.1730 H.spc     1 <1>   0.0000 
  7 O        7.4890     2.1390     0.0070 O.3   1 <1>  -0.4300 
  8 C        6.5130     1.5240     0.7100 C.2   1 <1>   0.6340 
  9 O        6.6220     0.5530     1.4380 O.2   1 <1>  -0.5700 
 10 C        5.2440     2.2330     0.4770 C.ar  1 <1>   0.0860 
 11 C        5.1600     3.5940     0.8070 C.ar  1 <1>  -0.1500 
 12 H        6.0350     4.1270     1.1740 H.spc     1 <1>   0.1500 
 13 C        3.9430     4.2660     0.6830 C.ar  1 <1>  -0.1500 
 14 H        3.8760     5.3210     0.9410 H.spc     1 <1>   0.1500 
 15 C        2.8110     3.5840     0.2380 C.ar  1 <1>  -0.1500 
 16 H        1.8630     4.1090     0.1440 H.spc     1 <1>   0.1500 
 17 C        2.8930     2.2300    -0.0960 C.ar  1 <1>  -0.1500 
 18 H        2.0070     1.7140    -0.4580 H.spc     1 <1>   0.1500 
 19 C        4.1140     1.5480     0.0200 C.ar  1 <1>   0.0860 
 20 C        4.2130     0.1430    -0.4220 C.2   1 <1>   0.6340 
 21 O        5.1500    -0.3610    -1.0090 O.2   1 <1>  -0.5700 
 22 O        3.1070    -0.5560    -0.1090 O.3   1 <1>  -0.6500 
 23 H        3.3110    -1.4660    -0.4110 H.spc     1 <1>   0.5000 
@<TRIPOS>BOND
  1   1   2  1   
  2   2   3  3   
  3   3   4  1   
  4   4   5  1   
  5   4   6  1   
  6   4   7  1   
  7   7   8  1   
  8   8   9  2   
  9   8  10  1   
 10  10  11  ar  
 11  10  19  ar  
 12  11  12  1   
 13  11  13  ar  
 14  13  14  1   
 15  13  15  ar  
 16  15  16  1   
 17  15  17  ar  
 18  17  18  1   
 19  17  19  ar  
 20  19  20  1   
 21  20  21  2   
 22  20  22  1   
 23  22  23  1   
@<TRIPOS>SUBSTRUCTURE
  1 ****  10 GROUP 4 **** **** 0
