@<TRIPOS>MOLECULE
CHEM023
33 34 1 0 0 
SMALL
USER_CHARGES


@<TRIPOS>ATOM
  1 H        5.4920     0.6130     0.5220 H.spc      1 <1>   0.4000 
  2 O        4.7470     0.1160     0.1510 O.3   1 <1>  -0.6800 
  3 C        4.8540    -1.1960     0.6690 C.3   1 <1>   0.6940 
  4 H        5.1290    -1.1250     1.7290 H.spc      1 <1>   0.0000 
  5 C        3.5060    -1.8950     0.5990 C.ar  1 <1>  -0.1440 
  6 C        3.3200    -3.1070     1.2900 C.ar  1 <1>  -0.1500 
  7 H        4.1410    -3.5370     1.8610 H.spc      1 <1>   0.1500 
  8 C        2.0980    -3.7840     1.2430 C.ar  1 <1>  -0.1500 
  9 H        1.9750    -4.7210     1.7790 H.spc      1 <1>   0.1500 
 10 C        1.0330    -3.2710     0.5050 C.ar  1 <1>   0.1790 
 11 N       -0.1800    -3.9830     0.4800 N.2   1 <1>  -0.6290 
 12 C       -1.1600    -3.4900    -0.2190 C.2   1 <1>   0.3890 
 13 C       -2.4750    -4.2090    -0.2860 C.3   1 <1>   0.0610 
 14 H       -3.2660    -3.5660     0.1100 H.spc      1 <1>   0.0000 
 15 H       -2.7000    -4.4650    -1.3260 H.spc      1 <1>   0.0000 
 16 H       -2.4380    -5.1290     0.3030 H.spc      1 <1>   0.0000 
 17 C       -1.0580    -2.1840    -1.0030 C.2   1 <1>   0.6300 
 18 O       -2.0120    -1.7640    -1.6410 O.2   1 <1>  -0.5700 
 19 N        0.1530    -1.5440    -0.9350 N.am  1 <1>  -0.5470 
 20 H        0.2520    -0.6770    -1.4440 H.spc      1 <1>   0.3700 
 21 C        1.2150    -2.0660    -0.1890 C.ar  1 <1>   0.1170 
 22 C        2.4330    -1.3840    -0.1500 C.ar  1 <1>  -0.1500 
 23 H        2.5550    -0.4550    -0.7000 H.spc      1 <1>   0.1500 
 24 N        5.8330    -1.9350    -0.0970 N.3   1 <1>  -0.9000 
 25 H        5.6070    -1.8020    -1.0810 H.spc      1 <1>   0.3600 
 26 C        7.2000    -1.5040     0.1450 C.3   1 <1>   0.4080 
 27 H        7.4380    -1.5740     1.2130 H.spc      1 <1>   0.0000 
 28 H        7.3460    -0.4630    -0.1630 H.spc      1 <1>   0.0000 
 29 C        8.1330    -2.4090    -0.5970 C.2   1 <1>  -0.2880 
 30 H        8.0800    -3.4680    -0.3500 H.spc      1 <1>   0.1500 
 31 C        9.0140    -2.0050    -1.5220 C.2   1 <1>  -0.3000 
 32 H        9.6610    -2.7220    -2.0190 H.spc      1 <1>   0.1500 
 33 H        9.1090    -0.9620    -1.8070 H.spc      1 <1>   0.1500 
@<TRIPOS>BOND
  1   1   2  1   
  2   2   3  1   
  3   3   4  1   
  4   3   5  1   
  5   3  24  1   
  6   5   6  ar  
  7   5  22  ar  
  8   6   7  1   
  9   6   8  ar  
 10   8   9  1   
 11   8  10  ar  
 12  10  11  1   
 13  10  21  ar  
 14  11  12  2   
 15  12  13  1   
 16  12  17  1   
 17  13  14  1   
 18  13  15  1   
 19  13  16  1   
 20  17  18  2   
 21  17  19  am  
 22  19  20  1   
 23  19  21  1   
 24  21  22  ar  
 25  22  23  1   
 26  24  25  1   
 27  24  26  1   
 28  26  27  1   
 29  26  28  1   
 30  26  29  1   
 31  29  30  1   
 32  29  31  2   
 33  31  32  1   
 34  31  33  1   
@<TRIPOS>SUBSTRUCTURE
  1 ****  22 GROUP 4 **** **** 0
