@<TRIPOS>MOLECULE
CHEM020
26 26 1 0 0 
SMALL
USER_CHARGES


@<TRIPOS>ATOM
  1 H        0.9980    -0.4590    -1.4400 H.spc      1 <1>   0.3700 
  2 N        0.9090    -0.8840    -0.5230 N.am  1 <1>  -0.7300 
  3 C        2.0760    -1.1950     0.1060 C.2   1 <1>   0.7800 
  4 O        2.1500    -1.7280     1.2020 O.2   1 <1>  -0.5700 
  5 O        3.1140    -0.8280    -0.6780 O.3   1 <1>  -0.4300 
  6 C        4.4200    -1.1230    -0.1620 C.3   1 <1>   0.2800 
  7 H        5.0900    -1.2160    -1.0230 H.spc      1 <1>   0.0000 
  8 H        4.4330    -2.0870     0.3600 H.spc      1 <1>   0.0000 
  9 C        4.8960     0.0030     0.7370 C.3   1 <1>   0.0000 
 10 H        5.9130    -0.1880     1.0910 H.spc      1 <1>   0.0000 
 11 H        4.8830     0.9560     0.1990 H.spc      1 <1>   0.0000 
 12 H        4.2400     0.1170     1.6050 H.spc      1 <1>   0.0000 
 13 C       -0.3910    -1.1600     0.0580 C.3   1 <1>   0.3000 
 14 H       -0.3260    -0.9440     1.1330 H.spc      1 <1>   0.0000 
 15 C       -1.5250    -0.3000    -0.5330 C.3   1 <1>   0.2900 
 16 H       -1.4010     0.7550    -0.2700 H.spc      1 <1>   0.0000 
 17 CL      -1.5360    -0.3560    -2.3260 Cl    1 <1>  -0.2900 
 18 C       -2.8250    -0.8540     0.0280 C.3   1 <1>   0.1050 
 19 H       -3.7000    -0.6710    -0.6010 H.spc      1 <1>   0.0000 
 20 H       -3.0090    -0.4540     1.0300 H.spc      1 <1>   0.0000 
 21 S       -2.5590    -2.6080     0.2060 S.o2  1 <1>   1.0900 
 22 O       -2.7750    -2.9510     1.5960 O.2   1 <1>  -0.6500 
 23 O       -3.2370    -3.2970    -0.8710 O.2   1 <1>  -0.6500 
 24 C       -0.8070    -2.6180    -0.1160 C.3   1 <1>   0.1050 
 25 H       -0.6440    -2.9800    -1.1350 H.spc      1 <1>   0.0000 
 26 H       -0.3080    -3.2860     0.5910 H.spc      1 <1>   0.0000 
@<TRIPOS>BOND
  1   1   2  1   
  2   2   3  am  
  3   2  13  1   
  4   3   4  2   
  5   3   5  1   
  6   5   6  1   
  7   6   7  1   
  8   6   8  1   
  9   6   9  1   
 10   9  10  1   
 11   9  11  1   
 12   9  12  1   
 13  13  14  1   
 14  13  15  1   
 15  13  24  1   
 16  15  16  1   
 17  15  17  1   
 18  15  18  1   
 19  18  19  1   
 20  18  20  1   
 21  18  21  1   
 22  21  22  2   
 23  21  23  2   
 24  21  24  1   
 25  24  25  1   
 26  24  26  1   
@<TRIPOS>SUBSTRUCTURE
  1 ****  13 GROUP 4 **** **** 0
