@<TRIPOS>MOLECULE
CHEM002
22 23 1 0 0 
SMALL
USER_CHARGES


@<TRIPOS>ATOM
  1 H       -3.4130     2.7240    -0.1520 H.spc      1 <1>   0.1500 
  2 C       -2.6740     3.5130    -0.0820 C.2   1 <1>  -0.1500 
  3 C       -2.9790     4.8460    -0.0030 C.2   1 <1>   0.1640 
  4 CL      -4.5510     5.5380     0.0030 Cl    1 <1>  -0.1240 
  5 S       -1.6200     5.8460     0.0960 S.3   1 <1>  -0.0800 
  6 C       -0.5510     4.4990     0.0340 C.2   1 <1>  -0.0450 
  7 C        0.8890     4.7250     0.0850 C.2   1 <1>   0.8660 
  8 O        1.4160     5.8310     0.1700 O.2   1 <1>  -0.5700 
  9 N        1.5650     3.5280     0.0240 N.2   1 <1>  -0.6610 
 10 C        2.8550     3.5500     0.0660 C.2   1 <1>   0.4860 
 11 C        3.6130     2.2980     0.0060 C.2   1 <1>  -0.1360 
 12 H        3.2210     1.3030    -0.0730 H.spc      1 <1>   0.1500 
 13 C        4.8690     2.7480     0.0780 C.2   1 <1>  -0.0610 
 14 C        6.1110     1.9310     0.0660 C.3   1 <1>   0.1380 
 15 H        5.8880     0.8610    -0.0030 H.spc      1 <1>   0.0000 
 16 H        6.6850     2.0990     0.9820 H.spc      1 <1>   0.0000 
 17 H        6.7360     2.2030    -0.7900 H.spc      1 <1>   0.0000 
 18 O        5.0320     4.1330     0.1760 O.3   1 <1>  -0.0560 
 19 N        3.7260     4.5920     0.1640 N.pl3 1 <1>  -0.4710 
 20 H        3.4850     5.5750     0.2220 H.spc      1 <1>   0.4000 
 21 C       -1.2610     3.3100    -0.0610 C.2   1 <1>  -0.1500 
 22 H       -0.7850     2.3370    -0.1120 H.spc      1 <1>   0.1500 
@<TRIPOS>BOND
  1   1   2  1   
  2   2   3  2   
  3   2  21  1   
  4   3   4  1   
  5   3   5  1   
  6   5   6  1   
  7   6   7  1   
  8   6  21  2   
  9   7   8  2   
 10   7   9  1   
 11   9  10  2   
 12  10  11  1   
 13  10  19  1   
 14  11  12  1   
 15  11  13  2   
 16  13  14  1   
 17  13  18  1   
 18  14  15  1   
 19  14  16  1   
 20  14  17  1   
 21  18  19  1   
 22  19  20  1   
 23  21  22  1   
@<TRIPOS>SUBSTRUCTURE
  1 ****   7 GROUP 4 **** **** 0
