@<TRIPOS>MOLECULE
CHEM159
25 26 1 0 0 
SMALL
USER_CHARGES


@<TRIPOS>ATOM
  1 H        9.7710     2.1270     2.0200 H.spc     1 <1>   0.4000 
  2 N        8.8630     2.5600     1.8520 N.2   1 <1>  -0.8500 
  3 C        8.2890     1.9640     0.8670 C.2   1 <1>   0.5500 
  4 N        8.8550     0.9430     0.2120 N.pl3 1 <1>  -0.8500 
  5 H        8.3990     0.4850    -0.5590 H.spc     1 <1>   0.4000 
  6 H        9.7660     0.5990     0.4760 H.spc     1 <1>   0.4000 
  7 N        7.0730     2.3730     0.4720 N.pl3 1 <1>  -0.8190 
  8 H        6.7110     3.1480     1.0180 H.spc     1 <1>   0.4000 
  9 C        6.2420     1.8760    -0.5860 C.3   1 <1>   0.5130 
 10 H        6.0460     0.8060    -0.4530 H.spc     1 <1>   0.0000 
 11 H        6.7440     1.9900    -1.5540 H.spc     1 <1>   0.0000 
 12 C        4.9310     2.6240    -0.6050 C.ar  1 <1>  -0.1440 
 13 C        4.7840     3.7900    -1.3930 C.ar  1 <1>  -0.1500 
 14 H        5.6160     4.1450    -1.9990 H.spc     1 <1>   0.1500 
 15 C        3.5820     4.5050    -1.4030 C.ar  1 <1>  -0.1500 
 16 H        3.4630     5.3970    -2.0070 H.spc     1 <1>   0.1500 
 17 C        2.5540     4.0420    -0.6120 C.ar  1 <1>   0.0820 
 18 C        2.6920     2.9190     0.1690 C.ar  1 <1>   0.0820 
 19 C        3.8630     2.1920     0.1990 C.ar  1 <1>  -0.1500 
 20 H        3.9490     1.3160     0.8350 H.spc     1 <1>   0.1500 
 21 O        1.5660     2.6380     0.8790 O.3   1 <1>  -0.3630 
 22 C        0.7060     3.7160     0.4570 C.3   1 <1>   0.5600 
 23 H        0.4100     4.2950     1.3400 H.spc     1 <1>   0.0000 
 24 H       -0.1940     3.2880     0.0010 H.spc     1 <1>   0.0000 
 25 O        1.3240     4.6080    -0.4940 O.3   1 <1>  -0.3630 
@<TRIPOS>BOND
  1   1   2  1   
  2   2   3  2   
  3   3   4  1   
  4   3   7  1   
  5   4   5  1   
  6   4   6  1   
  7   7   8  1   
  8   7   9  1   
  9   9  10  1   
 10   9  11  1   
 11   9  12  1   
 12  12  13  ar  
 13  12  19  ar  
 14  13  14  1   
 15  13  15  ar  
 16  15  16  1   
 17  15  17  ar  
 18  17  18  ar  
 19  17  25  1   
 20  18  19  ar  
 21  18  21  1   
 22  19  20  1   
 23  21  22  1   
 24  22  23  1   
 25  22  24  1   
 26  22  25  1   
@<TRIPOS>SUBSTRUCTURE
  1 ****  12 GROUP 4 **** **** 0
