@<TRIPOS>MOLECULE
CHEM143
17 16 1 0 0 
SMALL
USER_CHARGES


@<TRIPOS>ATOM
  1 H        1.0580    -1.7830    -1.5760 H.spc     1 <1>   0.0000 
  2 C        0.5380    -1.9980    -0.6350 C.3   1 <1>   0.5000 
  3 H        0.1160    -2.9930    -0.7490 H.spc     1 <1>   0.0000 
  4 C        1.5070    -2.0140     0.4770 C.1   1 <1>   0.3570 
  5 N        2.2850    -2.0180     1.3360 N.1   1 <1>  -0.5570 
  6 N       -0.5150    -0.9750    -0.4820 N.am  1 <1>  -0.6600 
  7 C       -1.8840    -1.1890    -0.2490 C.2   1 <1>   0.5690 
  8 O       -2.6100    -0.1860    -0.1890 O.2   1 <1>  -0.5700 
  9 C       -2.4920    -2.6200    -0.0980 C.3   1 <1>   0.9310 
 10 CL      -4.2370    -2.5130     0.2980 Cl    1 <1>  -0.2900 
 11 CL      -1.6830    -3.4940     1.2240 Cl    1 <1>  -0.2900 
 12 CL      -2.3330    -3.4780    -1.6540 Cl    1 <1>  -0.2900 
 13 C       -0.0760     0.4320    -0.5740 C.3   1 <1>   0.5000 
 14 H       -0.8060     0.9950    -1.1670 H.spc     1 <1>   0.0000 
 15 H        0.8680     0.4740    -1.1300 H.spc     1 <1>   0.0000 
 16 C        0.0830     1.0740     0.7460 C.1   1 <1>   0.3570 
 17 N        0.2250     1.5780     1.7820 N.1   1 <1>  -0.5570 
@<TRIPOS>BOND
  1   1   2  1   
  2   2   3  1   
  3   2   4  1   
  4   2   6  1   
  5   4   5  3   
  6   6   7  am  
  7   6  13  1   
  8   7   8  2   
  9   7   9  1   
 10   9  10  1   
 11   9  11  1   
 12   9  12  1   
 13  13  14  1   
 14  13  15  1   
 15  13  16  1   
 16  16  17  3   
@<TRIPOS>SUBSTRUCTURE
  1 ****   6 GROUP 4 **** **** 0
