@<TRIPOS>MOLECULE
CHEM082
33 34 1 0 0 
SMALL
USER_CHARGES


@<TRIPOS>ATOM
  1 H        1.6180     4.3220     0.6090 H.spc     1 <1>   0.1500 
  2 C        0.6360     3.9240     0.3650 C.ar  1 <1>  -0.1500 
  3 C        0.0600     4.1990    -0.8730 C.ar  1 <1>  -0.1500 
  4 H        0.5930     4.8080    -1.5990 H.spc     1 <1>   0.1500 
  5 C       -1.2000     3.6830    -1.1860 C.ar  1 <1>  -0.1500 
  6 H       -1.6370     3.8870    -2.1610 H.spc     1 <1>   0.1500 
  7 C       -1.9050     2.8990    -0.2640 C.ar  1 <1>   0.1790 
  8 N       -3.1610     2.3900    -0.6350 N.2   1 <1>  -0.6290 
  9 C       -4.2410     3.0780    -0.4120 C.2   1 <1>   0.3280 
 10 C       -4.3060     4.4560     0.2030 C.3   1 <1>   0.1220 
 11 H       -4.3570     5.1900    -0.6080 H.spc     1 <1>   0.0000 
 12 H       -3.4210     4.6630     0.8080 H.spc     1 <1>   0.0000 
 13 C       -5.5140     4.6480     1.0840 C.2   1 <1>   0.4480 
 14 O       -5.4730     5.3800     2.0730 O.2   1 <1>  -0.5700 
 15 C       -6.8190     4.0350     0.6240 C.3   1 <1>   0.0610 
 16 H       -7.1970     4.6600    -0.1940 H.spc     1 <1>   0.0000 
 17 H       -7.5410     4.0970     1.4470 H.spc     1 <1>   0.0000 
 18 C       -6.6520     2.5750     0.1680 C.3   1 <1>   0.0000 
 19 C       -6.3240     1.6670     1.3680 C.3   1 <1>   0.0000 
 20 H       -7.1320     1.6890     2.1090 H.spc     1 <1>   0.0000 
 21 H       -5.4070     1.9750     1.8790 H.spc     1 <1>   0.0000 
 22 H       -6.1930     0.6270     1.0510 H.spc     1 <1>   0.0000 
 23 C       -7.9780     2.0950    -0.4500 C.3   1 <1>   0.0000 
 24 H       -8.7960     2.1500     0.2770 H.spc     1 <1>   0.0000 
 25 H       -8.2590     2.7070    -1.3140 H.spc     1 <1>   0.0000 
 26 H       -7.9030     1.0550    -0.7890 H.spc     1 <1>   0.0000 
 27 C       -5.5490     2.4840    -0.9010 C.3   1 <1>   0.0610 
 28 H       -5.3870     1.4420    -1.2040 H.spc     1 <1>   0.0000 
 29 H       -5.8370     3.0420    -1.8010 H.spc     1 <1>   0.0000 
 30 C       -1.3030     2.6110     0.9720 C.ar  1 <1>   0.1110 
 31 BR      -2.1690     1.5200     2.2640 Br    1 <1>  -0.1110 
 32 C       -0.0430     3.1270     1.2880 C.ar  1 <1>  -0.1500 
 33 H        0.4200     2.9090     2.2470 H.spc     1 <1>   0.1500 
@<TRIPOS>BOND
  1   1   2  1   
  2   2   3  ar  
  3   2  32  ar  
  4   3   4  1   
  5   3   5  ar  
  6   5   6  1   
  7   5   7  ar  
  8   7   8  1   
  9   7  30  ar  
 10   8   9  2   
 11   9  10  1   
 12   9  27  1   
 13  10  11  1   
 14  10  12  1   
 15  10  13  1   
 16  13  14  2   
 17  13  15  1   
 18  15  16  1   
 19  15  17  1   
 20  15  18  1   
 21  18  19  1   
 22  18  23  1   
 23  18  27  1   
 24  19  20  1   
 25  19  21  1   
 26  19  22  1   
 27  23  24  1   
 28  23  25  1   
 29  23  26  1   
 30  27  28  1   
 31  27  29  1   
 32  30  31  1   
 33  30  32  ar  
 34  32  33  1   
@<TRIPOS>SUBSTRUCTURE
  1 ****   9 GROUP 4 **** **** 0
