@<TRIPOS>MOLECULE
CHEM115
29 31 1 0 0 
SMALL
USER_CHARGES


@<TRIPOS>ATOM
  1 H       -1.2460    -1.8980    -0.6220 H.spc     1 <1>   0.1500 
  2 C       -0.7390    -0.9960    -0.2950 C.ar  1 <1>  -0.1500 
  3 C        0.6530    -1.0170    -0.2280 C.ar  1 <1>   0.0820 
  4 C        1.3510     0.1120     0.1980 C.ar  1 <1>   0.0820 
  5 C        0.6580     1.2790     0.5140 C.ar  1 <1>  -0.1500 
  6 H        1.2190     2.1550     0.8300 H.spc     1 <1>   0.1500 
  7 C       -0.7410     1.3280     0.4410 C.ar  1 <1>   0.1000 
  8 N       -1.3790     2.5150     0.7730 N.pl3 1 <1>  -0.9000 
  9 H       -0.8820     3.3390     1.0740 H.spc     1 <1>   0.4000 
 10 H       -2.3990     2.5450     0.7000 H.spc     1 <1>   0.4000 
 11 C       -1.4480     0.1700     0.0380 C.ar  1 <1>   0.0860 
 12 C       -2.9470     0.1810    -0.0430 C.2   1 <1>   0.4840 
 13 O       -3.6020     1.2000     0.1470 O.2   1 <1>  -0.5700 
 14 C       -3.6640    -1.0830    -0.3820 C.3   1 <1>  -0.1000 
 15 H       -3.5590    -1.3810    -1.4220 H.spc     1 <1>   0.1000 
 16 C       -5.0160    -1.3670     0.2350 C.3   1 <1>  -0.2000 
 17 H       -5.4200    -0.6470     0.9410 H.spc     1 <1>   0.1000 
 18 H       -5.7660    -1.8410    -0.3870 H.spc     1 <1>   0.1000 
 19 C       -3.8250    -2.1730     0.6530 C.3   1 <1>  -0.2000 
 20 H       -3.4320    -2.0070     1.6500 H.spc     1 <1>   0.1000 
 21 H       -3.7670    -3.2030     0.3200 H.spc     1 <1>   0.1000 
 22 O        2.7160     0.1510     0.3190 O.3   1 <1>  -0.3630 
 23 C        3.2800    -1.1660     0.3070 C.3   1 <1>   0.2800 
 24 H        4.3590    -1.0640     0.1560 H.spc     1 <1>   0.0000 
 25 H        3.1130    -1.6250     1.2890 H.spc     1 <1>   0.0000 
 26 C        2.6700    -2.0000    -0.8080 C.3   1 <1>   0.2800 
 27 H        3.1370    -2.9890    -0.8400 H.spc     1 <1>   0.0000 
 28 H        2.8080    -1.5240    -1.7870 H.spc     1 <1>   0.0000 
 29 O        1.2670    -2.1890    -0.5890 O.3   1 <1>  -0.3630 
@<TRIPOS>BOND
  1   1   2  1   
  2   2   3  ar  
  3   2  11  ar  
  4   3   4  ar  
  5   3  29  1   
  6   4   5  ar  
  7   4  22  1   
  8   5   6  1   
  9   5   7  ar  
 10   7   8  1   
 11   7  11  ar  
 12   8   9  1   
 13   8  10  1   
 14  11  12  1   
 15  12  13  2   
 16  12  14  1   
 17  14  15  1   
 18  14  16  1   
 19  14  19  1   
 20  16  17  1   
 21  16  18  1   
 22  16  19  1   
 23  19  20  1   
 24  19  21  1   
 25  22  23  1   
 26  23  24  1   
 27  23  25  1   
 28  23  26  1   
 29  26  27  1   
 30  26  28  1   
 31  26  29  1   
@<TRIPOS>SUBSTRUCTURE
  1 ****   2 GROUP 4 **** **** 0
