@<TRIPOS>MOLECULE
CHEM001
33 35 1 0 0 
SMALL
USER_CHARGES


@<TRIPOS>ATOM
  1 H        2.2040     2.7510     1.5550 H.spc     1 <1>   0.4000 
  2 N        3.1880     2.5440     1.3430 N.2   1 <1>  -0.8500 
  3 C        3.2340     1.3820     0.7820 C.2   1 <1>   0.5390 
  4 O        2.0390     0.7510     0.5560 O.3   1 <1>  -0.2320 
  5 C        2.0010    -0.5820     0.1150 C.ar  1 <1>   0.0820 
  6 C        0.7430    -1.0750    -0.2410 C.ar  1 <1>  -0.1500 
  7 H       -0.1200    -0.4150    -0.2110 H.spc      1 <1>   0.1500 
  8 C        0.5940    -2.4080    -0.6150 C.ar  1 <1>   0.1000 
  9 N       -0.6410    -2.9090    -0.9760 N.pl3 1 <1>  -0.9000 
 10 H       -1.4620    -2.3180    -0.9810 H.spc      1 <1>   0.4000 
 11 H       -0.7490    -3.8770    -1.2440 H.spc      1 <1>   0.4000 
 12 C        1.7210    -3.2310    -0.6040 C.ar  1 <1>  -0.1500 
 13 H        1.6310    -4.2810    -0.8740 H.spc      1 <1>   0.1500 
 14 C        2.9780    -2.7310    -0.2400 C.ar  1 <1>  -0.1500 
 15 H        3.8210    -3.4190    -0.2300 H.spc      1 <1>   0.1500 
 16 C        3.1420    -1.3810     0.0980 C.ar  1 <1>  -0.1440 
 17 C        4.4720    -0.7860     0.5180 C.3   1 <1>   0.2870 
 18 H        4.5370    -0.9650     1.6020 H.spc      1 <1>   0.0000 
 19 C        5.6800    -1.4540    -0.1500 C.ar  1 <1>  -0.1440 
 20 C        6.6800    -2.0410     0.6470 C.ar  1 <1>  -0.1500 
 21 H        6.6070    -2.0260     1.7330 H.spc      1 <1>   0.1500 
 22 C        7.7930    -2.6430     0.0570 C.ar  1 <1>  -0.1500 
 23 H        8.5690    -3.0920     0.6690 H.spc      1 <1>   0.1500 
 24 C        7.9110    -2.6640    -1.3260 C.ar  1 <1>   0.1900 
 25 F        8.9780    -3.2460    -1.8900 F     1 <1>  -0.1900 
 26 C        6.9380    -2.0920    -2.1350 C.ar  1 <1>  -0.1500 
 27 H        7.0510    -2.1220    -3.2140 H.spc      1 <1>   0.1500 
 28 C        5.8240    -1.4850    -1.5500 C.ar  1 <1>  -0.1500 
 29 H        5.0670    -1.0500    -2.1990 H.spc      1 <1>   0.1500 
 30 C        4.4910     0.7360     0.2690 C.3   1 <1>   0.2610 
 31 H        4.5200     0.9550    -0.8080 H.spc      1 <1>   0.0000 
 32 C        5.6790     1.3380     0.9030 C.1   1 <1>   0.3570 
 33 N        6.6460     1.7610     1.3880 N.1   1 <1>  -0.5570 
@<TRIPOS>BOND
  1   1   2  1   
  2   2   3  2   
  3   3   4  1   
  4   3  30  1   
  5   4   5  1   
  6   5   6  ar  
  7   5  16  ar  
  8   6   7  1   
  9   6   8  ar  
 10   8   9  1   
 11   8  12  ar  
 12   9  10  1   
 13   9  11  1   
 14  12  13  1   
 15  12  14  ar  
 16  14  15  1   
 17  14  16  ar  
 18  16  17  1   
 19  17  18  1   
 20  17  19  1   
 21  17  30  1   
 22  19  20  ar  
 23  19  28  ar  
 24  20  21  1   
 25  20  22  ar  
 26  22  23  1   
 27  22  24  ar  
 28  24  25  1   
 29  24  26  ar  
 30  26  27  1   
 31  26  28  ar  
 32  28  29  1   
 33  30  31  1   
 34  30  32  1   
 35  32  33  3   
@<TRIPOS>SUBSTRUCTURE
  1 ****  17 GROUP 4 **** **** 0
