@<TRIPOS>MOLECULE
CHEM117
18 18 1 0 0 
SMALL
USER_CHARGES


@<TRIPOS>ATOM
  1 H        8.6980     1.5490     0.5480 H.spc     1 <1>   0.5000 
  2 O        7.9340     2.1440     0.7050 O.3   1 <1>  -0.6500 
  3 C        6.8800     1.4800     0.1930 C.2   1 <1>   0.6590 
  4 O        7.0230     0.3810    -0.3140 O.2   1 <1>  -0.5700 
  5 C        5.6010     2.2520     0.3490 C.3   1 <1>   0.0610 
  6 H        5.4120     2.3900     1.4200 H.spc     1 <1>   0.0000 
  7 H        5.7360     3.2350    -0.1180 H.spc     1 <1>   0.0000 
  8 C        4.4350     1.5130    -0.3020 C.3   1 <1>   0.1380 
  9 H        4.3490     0.5070     0.1270 H.spc     1 <1>   0.0000 
 10 H        4.6300     1.3730    -1.3730 H.spc     1 <1>   0.0000 
 11 C        3.1450     2.2490    -0.1350 C.2   1 <1>  -0.0610 
 12 O        3.0290     3.4810    -0.7650 O.3   1 <1>  -0.1120 
 13 N        1.7190     3.8710    -0.4170 N.am  1 <1>  -0.3940 
 14 H        1.3330     4.7480    -0.7310 H.spc     1 <1>   0.3700 
 15 C        1.1110     2.9270     0.3590 C.2   1 <1>   0.6160 
 16 O       -0.0120     2.9530     0.8270 O.2   1 <1>  -0.5700 
 17 C        2.0700     1.8440     0.5390 C.2   1 <1>  -0.1360 
 18 H        1.8930     0.9450     1.0980 H.spc     1 <1>   0.1500 
@<TRIPOS>BOND
  1   1   2  1   
  2   2   3  1   
  3   3   4  2   
  4   3   5  1   
  5   5   6  1   
  6   5   7  1   
  7   5   8  1   
  8   8   9  1   
  9   8  10  1   
 10   8  11  1   
 11  11  12  1   
 12  11  17  2   
 13  12  13  1   
 14  13  14  1   
 15  13  15  am  
 16  15  16  2   
 17  15  17  1   
 18  17  18  1   
@<TRIPOS>SUBSTRUCTURE
  1 ****  11 GROUP 4 **** **** 0
