@<TRIPOS>MOLECULE
CHEM064
15 15 1 0 0 
SMALL
USER_CHARGES


@<TRIPOS>ATOM
  1 H       -2.0320     2.1450    -1.9970 H.spc     1 <1>   0.4000 
  2 N       -2.1220     1.4340    -1.2880 N.pl3 1 <1>  -0.8190 
  3 C       -1.1280     1.0790    -0.4460 C.2   1 <1>   0.6410 
  4 S        0.3930     1.8840    -0.5890 S.3   1 <1>  -0.3710 
  5 C        1.3240     1.0530     0.7140 C.3   1 <1>   0.2300 
  6 H        2.3380     1.4620     0.7460 H.spc     1 <1>   0.0000 
  7 H        0.8580     1.2180     1.6890 H.spc     1 <1>   0.0000 
  8 H        1.3940    -0.0200     0.5170 H.spc     1 <1>   0.0000 
  9 N       -1.3890     0.1450     0.4220 N.2   1 <1>  -0.6960 
 10 C       -2.8130    -0.2200     0.1400 C.3   1 <1>   0.2460 
 11 H       -2.8730    -1.2810    -0.1220 H.spc     1 <1>   0.0000 
 12 H       -3.4170    -0.0500     1.0380 H.spc     1 <1>   0.0000 
 13 C       -3.2960     0.6640    -1.0240 C.3   1 <1>   0.3690 
 14 H       -3.5860     0.0610    -1.8900 H.spc     1 <1>   0.0000 
 15 H       -4.1360     1.2970    -0.7250 H.spc     1 <1>   0.0000 
@<TRIPOS>BOND
  1   1   2  1   
  2   2   3  1   
  3   2  13  1   
  4   3   4  1   
  5   3   9  2   
  6   4   5  1   
  7   5   6  1   
  8   5   7  1   
  9   5   8  1   
 10   9  10  1   
 11  10  11  1   
 12  10  12  1   
 13  10  13  1   
 14  13  14  1   
 15  13  15  1   
@<TRIPOS>SUBSTRUCTURE
  1 ****   3 GROUP 4 **** **** 0
