@<TRIPOS>MOLECULE
CHEM098
22 22 1 0 0 
SMALL
USER_CHARGES


@<TRIPOS>ATOM
  1 H       -2.8300     2.2130    -0.6800 H.spc     1 <1>   0.5000 
  2 O       -2.2270     2.2360     0.0920 O.3   1 <1>  -0.6500 
  3 C       -1.2000     2.9940    -0.3170 C.2   1 <1>   0.7200 
  4 O       -1.1030     3.4370    -1.4430 O.2   1 <1>  -0.5700 
  5 C       -0.1710     3.2050     0.7850 C.2   1 <1>   0.4840 
  6 O       -0.4520     3.8330     1.7950 O.2   1 <1>  -0.5700 
  7 C        1.1440     2.5840     0.5690 C.ar  1 <1>   0.0860 
  8 C        2.2710     3.3860     0.3070 C.ar  1 <1>   0.1110 
  9 BR       2.1080     5.2870     0.2060 Br    1 <1>  -0.1110 
 10 C        3.5220     2.7830     0.0830 C.ar  1 <1>  -0.1440 
 11 C        4.7690     3.5750    -0.2060 C.3   1 <1>   0.1440 
 12 H        5.6430     2.9230    -0.3090 H.spc     1 <1>   0.0000 
 13 H        4.6620     4.1270    -1.1450 H.spc     1 <1>   0.0000 
 14 H        4.9810     4.2700     0.6120 H.spc     1 <1>   0.0000 
 15 C        3.6090     1.3840     0.1170 C.ar  1 <1>  -0.1500 
 16 H        4.5620     0.8860    -0.0560 H.spc     1 <1>   0.1500 
 17 C        2.4810     0.5990     0.3740 C.ar  1 <1>  -0.1500 
 18 H        2.5950    -0.4830     0.3970 H.spc     1 <1>   0.1500 
 19 C        1.2330     1.1800     0.6090 C.ar  1 <1>   0.1000 
 20 N        0.1540     0.3490     0.8780 N.pl3 1 <1>  -0.9000 
 21 H       -0.7650     0.7040     1.1230 H.spc     1 <1>   0.4000 
 22 H        0.2630    -0.6570     0.8490 H.spc     1 <1>   0.4000 
@<TRIPOS>BOND
  1   1   2  1   
  2   2   3  1   
  3   3   4  2   
  4   3   5  1   
  5   5   6  2   
  6   5   7  1   
  7   7   8  ar  
  8   7  19  ar  
  9   8   9  1   
 10   8  10  ar  
 11  10  11  1   
 12  10  15  ar  
 13  11  12  1   
 14  11  13  1   
 15  11  14  1   
 16  15  16  1   
 17  15  17  ar  
 18  17  18  1   
 19  17  19  ar  
 20  19  20  1   
 21  20  21  1   
 22  20  22  1   
@<TRIPOS>SUBSTRUCTURE
  1 ****   7 GROUP 4 **** **** 0
