@<TRIPOS>MOLECULE
CHEM080
24 24 1 0 0 
SMALL
USER_CHARGES


@<TRIPOS>ATOM
  1 H       -0.2750     4.2060    -1.7190 H.spc     1 <1>   0.4000 
  2 O        0.3590     3.4720    -1.6180 O.3   1 <1>  -0.6800 
  3 C        0.2840     3.0150    -0.2460 C.3   1 <1>   0.2800 
  4 H        0.4660     3.9000     0.3740 H.spc     1 <1>   0.0000 
  5 C       -1.1280     2.4620     0.1070 C.3   1 <1>   0.8700 
  6 CL      -1.2570     2.0830     1.8550 Cl    1 <1>  -0.2900 
  7 CL      -2.3670     3.7140    -0.2750 Cl    1 <1>  -0.2900 
  8 CL      -1.5240     0.9870    -0.8310 Cl    1 <1>  -0.2900 
  9 C        1.4090     1.9800    -0.0710 C.3   1 <1>   0.0610 
 10 H        1.5220     1.4160    -1.0030 H.spc     1 <1>   0.0000 
 11 H        1.2020     1.2840     0.7480 H.spc     1 <1>   0.0000 
 12 C        2.7280     2.6510     0.2730 C.2   1 <1>   0.4230 
 13 O        2.7720     3.7240     0.8720 O.2   1 <1>  -0.5700 
 14 C        4.0060     1.9600    -0.0760 C.ar  1 <1>   0.0860 
 15 C        5.1960     2.7010    -0.0350 C.ar  1 <1>  -0.1500 
 16 H        5.1780     3.7540     0.2400 H.spc     1 <1>   0.1500 
 17 C        6.4150     2.0970    -0.3480 C.ar  1 <1>  -0.1500 
 18 H        7.3330     2.6790    -0.3160 H.spc     1 <1>   0.1500 
 19 C        6.4550     0.7490    -0.6990 C.ar  1 <1>  -0.1500 
 20 H        7.4040     0.2790    -0.9420 H.spc     1 <1>   0.1500 
 21 C        5.2770     0.0030    -0.7320 C.ar  1 <1>  -0.1500 
 22 H        5.3130    -1.0510    -1.0000 H.spc     1 <1>   0.1500 
 23 C        4.0540     0.6030    -0.4190 C.ar  1 <1>  -0.1500 
 24 H        3.1610    -0.0140    -0.4390 H.spc     1 <1>   0.1500 
@<TRIPOS>BOND
  1   1   2  1   
  2   2   3  1   
  3   3   4  1   
  4   3   5  1   
  5   3   9  1   
  6   5   6  1   
  7   5   7  1   
  8   5   8  1   
  9   9  10  1   
 10   9  11  1   
 11   9  12  1   
 12  12  13  2   
 13  12  14  1   
 14  14  15  ar  
 15  14  23  ar  
 16  15  16  1   
 17  15  17  ar  
 18  17  18  1   
 19  17  19  ar  
 20  19  20  1   
 21  19  21  ar  
 22  21  22  1   
 23  21  23  ar  
 24  23  24  1   
@<TRIPOS>SUBSTRUCTURE
  1 ****   9 GROUP 4 **** **** 0
