@<TRIPOS>MOLECULE
CHEM104
31 32 1 0 0 
SMALL
USER_CHARGES


@<TRIPOS>ATOM
  1 H       -5.4650    -4.0200     1.8320 H.spc     1 <1>   0.1500 
  2 C       -4.4690    -3.9250     1.4090 C.ar  1 <1>  -0.1500 
  3 C       -3.6090    -5.0090     1.4020 C.ar  1 <1>  -0.1500 
  4 H       -3.9300    -5.9630     1.8120 H.spc     1 <1>   0.1500 
  5 C       -2.3300    -4.8750     0.8590 C.ar  1 <1>  -0.1500 
  6 H       -1.7130    -5.7700     0.8570 H.spc     1 <1>   0.1500 
  7 C       -1.8580    -3.6500     0.3200 C.ar  1 <1>  -0.1440 
  8 C       -0.4080    -3.5970    -0.2610 C.3   1 <1>   0.3440 
  9 C       -0.4430    -4.2010    -1.6240 C.1   1 <1>   0.3570 
 10 N       -0.4260    -4.6820    -2.6810 N.1   1 <1>  -0.5570 
 11 C        0.2050    -2.1720    -0.3830 C.3   1 <1>   0.0000 
 12 H       -0.2770    -1.5900    -1.1760 H.spc     1 <1>   0.0000 
 13 H        0.0630    -1.6440     0.5700 H.spc     1 <1>   0.0000 
 14 C        1.6970    -2.1710    -0.6960 C.3   1 <1>   0.2800 
 15 H        1.9060    -2.5580    -1.7000 H.spc     1 <1>   0.0000 
 16 H        2.0770    -1.1440    -0.6620 H.spc     1 <1>   0.0000 
 17 O        2.4100    -2.9260     0.2720 O.3   1 <1>  -0.5600 
 18 C        2.0280    -4.2920     0.2480 C.3   1 <1>   0.2800 
 19 H        2.6510    -4.8240     0.9740 H.spc     1 <1>   0.0000 
 20 H        2.2410    -4.7230    -0.7370 H.spc     1 <1>   0.0000 
 21 C        0.5600    -4.4400     0.6300 C.3   1 <1>   0.0000 
 22 H        0.3280    -5.5100     0.5940 H.spc     1 <1>   0.0000 
 23 H        0.4460    -4.1130     1.6730 H.spc     1 <1>   0.0000 
 24 C       -2.7750    -2.5710     0.2930 C.ar  1 <1>   0.0820 
 25 O       -2.3680    -1.4110    -0.3050 O.3   1 <1>  -0.3630 
 26 C       -3.3010    -0.3450    -0.4370 C.3   1 <1>   0.2800 
 27 H       -3.5930     0.0450     0.5430 H.spc     1 <1>   0.0000 
 28 H       -2.8060     0.4650    -0.9810 H.spc     1 <1>   0.0000 
 29 H       -4.1740    -0.6520    -1.0220 H.spc     1 <1>   0.0000 
 30 C       -4.0570    -2.7170     0.8520 C.ar  1 <1>  -0.1500 
 31 H       -4.7720    -1.9000     0.8640 H.spc     1 <1>   0.1500 
@<TRIPOS>BOND
  1   1   2  1   
  2   2   3  ar  
  3   2  30  ar  
  4   3   4  1   
  5   3   5  ar  
  6   5   6  1   
  7   5   7  ar  
  8   7   8  1   
  9   7  24  ar  
 10   8   9  1   
 11   8  11  1   
 12   8  21  1   
 13   9  10  3   
 14  11  12  1   
 15  11  13  1   
 16  11  14  1   
 17  14  15  1   
 18  14  16  1   
 19  14  17  1   
 20  17  18  1   
 21  18  19  1   
 22  18  20  1   
 23  18  21  1   
 24  21  22  1   
 25  21  23  1   
 26  24  25  1   
 27  24  30  ar  
 28  25  26  1   
 29  26  27  1   
 30  26  28  1   
 31  26  29  1   
 32  30  31  1   
@<TRIPOS>SUBSTRUCTURE
  1 ****   7 GROUP 4 **** **** 0
