@<TRIPOS>MOLECULE
CHEM135
18 19 1 0 0 
SMALL
USER_CHARGES


@<TRIPOS>ATOM
  1 H       -7.2960     1.7290     0.0240 H.spc     1 <1>   0.1500 
  2 C       -6.3550     2.2610     0.0150 C.2   1 <1>  -0.1100 
  3 S       -4.8790     1.4020     0.0240 S.3   1 <1>  -0.0800 
  4 C       -3.9440     2.8410     0.0030 C.2   1 <1>  -0.0450 
  5 C       -2.4820     2.8390     0.0020 C.2   1 <1>   0.5210 
  6 N       -1.8870     4.0000     0.0050 N.2   1 <1>  -0.5120 
  7 N       -0.5210     4.0210     0.0050 N.am  1 <1>  -0.3680 
  8 H       -0.0810     4.9350     0.0090 H.spc     1 <1>   0.3700 
  9 C        0.2980     2.9240     0.0020 C.2   1 <1>   0.6160 
 10 O        1.5210     2.9920     0.0020 O.2   1 <1>  -0.5700 
 11 C       -0.3860     1.6200    -0.0040 C.2   1 <1>  -0.1360 
 12 H        0.2420     0.7390    -0.0080 H.spc     1 <1>   0.1500 
 13 C       -1.7200     1.5580    -0.0040 C.2   1 <1>  -0.1360 
 14 H       -2.2310     0.6070    -0.0090 H.spc     1 <1>   0.1500 
 15 C       -4.7720     3.9540    -0.0100 C.2   1 <1>  -0.1500 
 16 H       -4.3930     4.9700    -0.0230 H.spc     1 <1>   0.1500 
 17 C       -6.1570     3.6210    -0.0030 C.2   1 <1>  -0.1500 
 18 H       -6.9640     4.3440    -0.0110 H.spc     1 <1>   0.1500 
@<TRIPOS>BOND
  1   1   2  1   
  2   2   3  1   
  3   2  17  2   
  4   3   4  1   
  5   4   5  1   
  6   4  15  2   
  7   5   6  2   
  8   5  13  1   
  9   6   7  1   
 10   7   8  1   
 11   7   9  am  
 12   9  10  2   
 13   9  11  1   
 14  11  12  1   
 15  11  13  2   
 16  13  14  1   
 17  15  16  1   
 18  15  17  1   
 19  17  18  1   
@<TRIPOS>SUBSTRUCTURE
  1 ****   5 GROUP 4 **** **** 0
