@<TRIPOS>MOLECULE
CHEM176
35 36 1 0 0 
SMALL
USER_CHARGES


@<TRIPOS>ATOM
  1 H       -0.0500     5.7820    -0.9290 H.spc     1 <1>   0.1500 
  2 C       -0.2070     4.8040    -0.4800 C.ar  1 <1>  -0.1500 
  3 C        0.8230     4.2030     0.2410 C.ar  1 <1>  -0.1500 
  4 H        1.7670     4.7290     0.3740 H.spc     1 <1>   0.1500 
  5 C        0.6300     2.9280     0.7730 C.ar  1 <1>  -0.0090 
  6 S        1.9350     2.1570     1.7110 S.o2  1 <1>   1.4470 
  7 O        2.8100     3.2130     2.1750 O.2   1 <1>  -0.6500 
  8 O        1.3120     1.2430     2.6450 O.2   1 <1>  -0.6500 
  9 N        2.7670     1.2490     0.5370 N.am  1 <1>  -0.8490 
 10 C        2.0710     0.0730    -0.0160 C.3   1 <1>   0.3560 
 11 H        1.5850    -0.5080     0.7730 H.spc     1 <1>   0.0000 
 12 H        2.7980    -0.5900    -0.4960 H.spc     1 <1>   0.0000 
 13 H        1.3280     0.3690    -0.7620 H.spc     1 <1>   0.0000 
 14 C        3.5270     2.0010    -0.4760 C.3   1 <1>   0.3560 
 15 H        4.2480     1.3360    -0.9620 H.spc     1 <1>   0.0000 
 16 H        2.8620     2.4100    -1.2430 H.spc     1 <1>   0.0000 
 17 H        4.1010     2.8120    -0.0200 H.spc     1 <1>   0.0000 
 18 C       -0.5950     2.2670     0.6210 C.ar  1 <1>  -0.1500 
 19 H       -0.7350     1.2830     1.0670 H.spc     1 <1>   0.1500 
 20 C       -1.6440     2.8640    -0.1010 C.ar  1 <1>   0.0540 
 21 C       -2.8960     2.1300    -0.2500 C.2   1 <1>   0.4620 
 22 N       -4.1070     2.6780    -0.4410 N.2   1 <1>  -0.4100 
 23 O       -4.9660     1.5840    -0.4850 O.3   1 <1>  -0.0190 
 24 C       -4.1930     0.4780    -0.3010 C.2   1 <1>   0.2980 
 25 C       -4.8870    -0.8210    -0.2990 C.3   1 <1>   0.1800 
 26 H       -5.3640    -1.0010    -1.2670 H.spc     1 <1>   0.0000 
 27 H       -5.6560    -0.8450     0.4790 H.spc     1 <1>   0.0000 
 28 H       -4.1820    -1.6350    -0.1080 H.spc     1 <1>   0.0000 
 29 N       -2.9190     0.7520    -0.1440 N.2   1 <1>  -0.5650 
 30 C       -1.4350     4.1460    -0.6400 C.ar  1 <1>   0.0820 
 31 O       -2.3860     4.7480    -1.4240 O.3   1 <1>  -0.3630 
 32 C       -3.0220     5.8180    -0.7240 C.3   1 <1>   0.2800 
 33 H       -2.3610     6.6890    -0.6650 H.spc     1 <1>   0.0000 
 34 H       -3.3410     5.5150     0.2800 H.spc     1 <1>   0.0000 
 35 H       -3.9130     6.1060    -1.2900 H.spc     1 <1>   0.0000 
@<TRIPOS>BOND
  1   1   2  1   
  2   2   3  ar  
  3   2  30  ar  
  4   3   4  1   
  5   3   5  ar  
  6   5   6  1   
  7   5  18  ar  
  8   6   7  2   
  9   6   8  2   
 10   6   9  am  
 11   9  10  1   
 12   9  14  1   
 13  10  11  1   
 14  10  12  1   
 15  10  13  1   
 16  14  15  1   
 17  14  16  1   
 18  14  17  1   
 19  18  19  1   
 20  18  20  ar  
 21  20  21  1   
 22  20  30  ar  
 23  21  22  2   
 24  21  29  1   
 25  22  23  1   
 26  23  24  1   
 27  24  25  1   
 28  24  29  2   
 29  25  26  1   
 30  25  27  1   
 31  25  28  1   
 32  30  31  1   
 33  31  32  1   
 34  32  33  1   
 35  32  34  1   
 36  32  35  1   
@<TRIPOS>SUBSTRUCTURE
  1 ****  18 GROUP 4 **** **** 0
