@<TRIPOS>MOLECULE
CHEM127
39 41 1 0 0 
SMALL
USER_CHARGES


@<TRIPOS>ATOM
  1 H        9.3870     4.4160     1.7330 H.spc     1 <1>   0.4500 
  2 O        8.5520     4.0150     1.4360 O.3   1 <1>  -0.5270 
  3 C        7.8270     5.0770     0.9390 C.2   1 <1>   0.1530 
  4 O        8.5290     6.2510     0.7460 O.3   1 <1>  -0.3570 
  5 C        9.2670     6.1760    -0.4740 C.3   1 <1>   0.2800 
  6 H       10.0300     5.3910    -0.4250 H.spc     1 <1>   0.0000 
  7 H        9.7740     7.1350    -0.6200 H.spc     1 <1>   0.0000 
  8 H        8.6020     6.0080    -1.3290 H.spc     1 <1>   0.0000 
  9 C        6.4950     4.9880     0.7230 C.2   1 <1>   0.0000 
 10 C        5.7220     6.1490     0.2780 C.2   1 <1>  -0.1500 
 11 H        6.2070     7.1180     0.2300 H.spc     1 <1>   0.1500 
 12 C        4.4200     6.0290    -0.0360 C.2   1 <1>  -0.1500 
 13 H        3.8850     6.9240    -0.3280 H.spc     1 <1>   0.1500 
 14 C        3.7250     4.7200     0.0230 C.2   1 <1>   0.0000 
 15 C        2.4330     4.5660    -0.3990 C.2   1 <1>   0.0000 
 16 C        1.6200     5.7070    -0.8360 C.2   1 <1>  -0.1500 
 17 H        2.0720     6.5710    -1.3050 H.spc     1 <1>   0.1500 
 18 C        0.2900     5.6780    -0.6660 C.2   1 <1>   0.2480 
 19 O       -0.4650     6.7510    -1.0550 O.3   1 <1>  -0.5270 
 20 H       -1.3600     6.4580    -0.8040 H.spc     1 <1>   0.4500 
 21 N       -0.4180     4.6370    -0.1290 N.2   1 <1>  -0.6210 
 22 C        0.2130     3.5030     0.0000 C.2   1 <1>   0.3750 
 23 C        1.6650     3.3060    -0.3670 C.2   1 <1>   0.0140 
 24 C        2.0160     2.0750    -0.7870 C.2   1 <1>  -0.0610 
 25 O        3.2400     1.8360    -1.3840 O.3   1 <1>  -0.5270 
 26 H        3.2690     0.9240    -1.7190 H.spc     1 <1>   0.4500 
 27 C        1.1230     0.8730    -0.6280 C.3   1 <1>   0.1380 
 28 H        1.7290    -0.0290    -0.4810 H.spc     1 <1>   0.0000 
 29 H        0.5360     0.7280    -1.5420 H.spc     1 <1>   0.0000 
 30 C        0.2140     1.0370     0.5850 C.3   1 <1>   0.0000 
 31 H        0.8240     1.0650     1.4980 H.spc     1 <1>   0.0000 
 32 H       -0.4550     0.1740     0.6770 H.spc     1 <1>   0.0000 
 33 C       -0.5990     2.3150     0.4830 C.3   1 <1>   0.0610 
 34 H       -1.4220     2.1710    -0.2280 H.spc     1 <1>   0.0000 
 35 H       -1.0440     2.5590     1.4540 H.spc     1 <1>   0.0000 
 36 C        4.4750     3.6200     0.6670 C.2   1 <1>  -0.1500 
 37 H        3.9710     2.6940     0.9150 H.spc     1 <1>   0.1500 
 38 C        5.7760     3.7410     0.9850 C.2   1 <1>  -0.1500 
 39 H        6.3040     2.9180     1.4560 H.spc     1 <1>   0.1500 
@<TRIPOS>BOND
  1   1   2  1   
  2   2   3  1   
  3   3   4  1   
  4   3   9  2   
  5   4   5  1   
  6   5   6  1   
  7   5   7  1   
  8   5   8  1   
  9   9  10  1   
 10   9  38  1   
 11  10  11  1   
 12  10  12  2   
 13  12  13  1   
 14  12  14  1   
 15  14  15  2   
 16  14  36  1   
 17  15  16  1   
 18  15  23  1   
 19  16  17  1   
 20  16  18  2   
 21  18  19  1   
 22  18  21  1   
 23  19  20  1   
 24  21  22  2   
 25  22  23  1   
 26  22  33  1   
 27  23  24  2   
 28  24  25  1   
 29  24  27  1   
 30  25  26  1   
 31  27  28  1   
 32  27  29  1   
 33  27  30  1   
 34  30  31  1   
 35  30  32  1   
 36  30  33  1   
 37  33  34  1   
 38  33  35  1   
 39  36  37  1   
 40  36  38  2   
 41  38  39  1   
@<TRIPOS>SUBSTRUCTURE
  1 ****  14 GROUP 4 **** **** 0
