@<TRIPOS>MOLECULE
CHEM067
19 19 1 0 0 
SMALL
USER_CHARGES


@<TRIPOS>ATOM
  1 H       -0.6290    -1.6670     0.0710 H.spc     1 <1>   0.1500 
  2 C       -0.6150    -0.5820    -0.0070 C.2   1 <1>  -0.1500 
  3 C       -1.8840     0.1370    -0.0320 C.2   1 <1>  -0.1380 
  4 C       -3.1430    -0.6830     0.0540 C.3   1 <1>   1.1580 
  5 F       -3.9070    -0.3160     1.1120 F     1 <1>  -0.3400 
  6 F       -2.9020    -2.0120     0.1970 F     1 <1>  -0.3400 
  7 F       -3.9010    -0.5460    -1.0610 F     1 <1>  -0.3400 
  8 C       -1.9040     1.4870    -0.1300 C.2   1 <1>   0.0790 
  9 C       -3.1310     2.2160    -0.1630 C.1   1 <1>   0.4920 
 10 N       -4.1500     2.7700    -0.1880 N.1   1 <1>  -0.5570 
 11 C       -0.5950     2.2230    -0.2090 C.2   1 <1>   0.4260 
 12 S       -0.3790     3.8830    -0.3320 S.2   1 <1>  -0.3800 
 13 N        0.5420     1.4440    -0.1760 N.am  1 <1>  -0.5390 
 14 H        1.4280     1.9410    -0.2290 H.spc     1 <1>   0.3700 
 15 C        0.5510     0.0740    -0.0780 C.2   1 <1>  -0.0290 
 16 C        1.8890    -0.6000    -0.0570 C.3   1 <1>   0.1380 
 17 H        1.7960    -1.6880     0.0240 H.spc     1 <1>   0.0000 
 18 H        2.4420    -0.3790    -0.9750 H.spc     1 <1>   0.0000 
 19 H        2.4790    -0.2510     0.7970 H.spc     1 <1>   0.0000 
@<TRIPOS>BOND
  1   1   2  1   
  2   2   3  1   
  3   2  15  2   
  4   3   4  1   
  5   3   8  2   
  6   4   5  1   
  7   4   6  1   
  8   4   7  1   
  9   8   9  1   
 10   8  11  1   
 11   9  10  3   
 12  11  12  2   
 13  11  13  am  
 14  13  14  1   
 15  13  15  1   
 16  15  16  1   
 17  16  17  1   
 18  16  18  1   
 19  16  19  1   
@<TRIPOS>SUBSTRUCTURE
  1 ****   3 GROUP 4 **** **** 0
