@<TRIPOS>MOLECULE
CHEM085
19 18 1 0 0 
SMALL
USER_CHARGES


@<TRIPOS>ATOM
  1 H        0.4700     0.1030    -1.7610 H.spc     1 <1>   0.3700 
  2 N        0.5690    -0.2880    -0.8270 N.am  1 <1>  -0.7300 
  3 C       -0.5800    -0.4220    -0.0690 C.2   1 <1>   0.5690 
  4 O       -0.5700    -0.8810     1.0720 O.2   1 <1>  -0.5700 
  5 C       -1.8780     0.0400    -0.7350 C.3   1 <1>   0.6410 
  6 H       -2.7240    -0.1190    -0.0610 H.spc     1 <1>   0.0000 
  7 CL      -2.1380    -0.8990    -2.2200 Cl    1 <1>  -0.2900 
  8 CL      -1.7530     1.7730    -1.1070 Cl    1 <1>  -0.2900 
  9 C        1.9230    -0.6680    -0.3850 C.3   1 <1>   0.5000 
 10 C        2.8800    -0.3710    -1.4890 C.1   1 <1>   0.3570 
 11 N        3.5980    -0.1280    -2.3680 N.1   1 <1>  -0.5570 
 12 C        2.3490     0.1470     0.8460 C.3   1 <1>   0.0000 
 13 H        3.3890    -0.0640     1.1240 H.spc     1 <1>   0.0000 
 14 H        1.7280    -0.0720     1.7200 H.spc     1 <1>   0.0000 
 15 H        2.2720     1.2240     0.6520 H.spc     1 <1>   0.0000 
 16 C        2.0020    -2.1730    -0.0820 C.3   1 <1>   0.0000 
 17 H        1.6740    -2.7660    -0.9450 H.spc     1 <1>   0.0000 
 18 H        1.3720    -2.4560     0.7670 H.spc     1 <1>   0.0000 
 19 H        3.0280    -2.4780     0.1570 H.spc     1 <1>   0.0000 
@<TRIPOS>BOND
  1   1   2  1   
  2   2   3  am  
  3   2   9  1   
  4   3   4  2   
  5   3   5  1   
  6   5   6  1   
  7   5   7  1   
  8   5   8  1   
  9   9  10  1   
 10   9  12  1   
 11   9  16  1   
 12  10  11  3   
 13  12  13  1   
 14  12  14  1   
 15  12  15  1   
 16  16  17  1   
 17  16  18  1   
 18  16  19  1   
@<TRIPOS>SUBSTRUCTURE
  1 ****   2 GROUP 4 **** **** 0
