@<TRIPOS>MOLECULE
CHEM025
24 25 1 0 0 
SMALL
USER_CHARGES


@<TRIPOS>ATOM
  1 H       -6.1490    -1.1180    -0.3430 H.spc      1 <1>   0.1500 
  2 C       -5.1860    -1.5130    -0.0310 C.ar  1 <1>  -0.1500 
  3 C       -4.2340    -0.6640     0.5230 C.ar  1 <1>  -0.1500 
  4 H       -4.4490     0.3950     0.6390 H.spc      1 <1>   0.1500 
  5 C       -3.0030    -1.1750     0.9290 C.ar  1 <1>  -0.1500 
  6 H       -2.2630    -0.4990     1.3540 H.spc      1 <1>   0.1500 
  7 C       -2.7080    -2.5430     0.7830 C.ar  1 <1>  -0.1440 
  8 C       -1.3580    -3.0620     1.2270 C.3   1 <1>   0.3240 
  9 H       -0.9910    -2.4840     2.0830 H.spc      1 <1>   0.0000 
 10 H       -1.4150    -4.1040     1.5600 H.spc      1 <1>   0.0000 
 11 C       -0.4510    -2.9210     0.0630 C.2   1 <1>   0.3350 
 12 N       -0.2320    -3.9300    -0.8410 N.2   1 <1>  -0.2270 
 13 N        0.6530    -3.4680    -1.7140 N.2   1 <1>  -0.4180 
 14 N        0.9260    -2.2270    -1.2950 N.pl3 1 <1>   0.5660 
 15 H        1.5750    -1.6280    -1.7940 H.spc      1 <1>   0.2700 
 16 N        0.2960    -1.8280    -0.1790 N.2   1 <1>  -0.7070 
 17 C       -3.6720    -3.3940     0.2100 C.ar  1 <1>   0.0820 
 18 O       -3.3250    -4.7160     0.1090 O.3   1 <1>  -0.3630 
 19 C       -4.0730    -5.5050    -0.8090 C.3   1 <1>   0.2800 
 20 H       -5.0760    -5.7060    -0.4210 H.spc      1 <1>   0.0000 
 21 H       -4.1170    -5.0380    -1.7980 H.spc      1 <1>   0.0000 
 22 H       -3.5610    -6.4670    -0.9170 H.spc      1 <1>   0.0000 
 23 C       -4.9080    -2.8730    -0.1860 C.ar  1 <1>  -0.1500 
 24 H       -5.6820    -3.5040    -0.6100 H.spc      1 <1>   0.1500 
@<TRIPOS>BOND
  1   1   2  1   
  2   2   3  ar  
  3   2  23  ar  
  4   3   4  1   
  5   3   5  ar  
  6   5   6  1   
  7   5   7  ar  
  8   7   8  1   
  9   7  17  ar  
 10   8   9  1   
 11   8  10  1   
 12   8  11  1   
 13  11  12  1   
 14  11  16  2   
 15  12  13  2   
 16  13  14  1   
 17  14  15  1   
 18  14  16  1   
 19  17  18  1   
 20  17  23  ar  
 21  18  19  1   
 22  19  20  1   
 23  19  21  1   
 24  19  22  1   
 25  23  24  1   
@<TRIPOS>SUBSTRUCTURE
  1 ****   7 GROUP 4 **** **** 0
