@<TRIPOS>MOLECULE
CHEM126
45 47 1 0 0 
SMALL
USER_CHARGES


@<TRIPOS>ATOM
  1 H        0.5410    -1.1640    -2.1880 H.spc     1 <1>   0.1500 
  2 C        0.0670    -0.7350    -1.3080 C.ar  1 <1>  -0.1500 
  3 C       -1.2050    -0.1670    -1.4260 C.ar  1 <1>  -0.1500 
  4 H       -1.6850    -0.1710    -2.4030 H.spc     1 <1>   0.1500 
  5 C       -1.8470     0.3960    -0.3140 C.ar  1 <1>  -0.1440 
  6 C       -3.2200     1.0200    -0.4830 C.3   1 <1>   0.1440 
  7 H       -3.6250     0.6870    -1.4500 H.spc     1 <1>   0.0000 
  8 C       -3.0960     2.5420    -0.5220 C.3   1 <1>   0.0610 
  9 H       -2.6940     2.9420     0.4160 H.spc     1 <1>   0.0000 
 10 H       -2.4230     2.8470    -1.3330 H.spc     1 <1>   0.0000 
 11 C       -4.4420     3.1870    -0.7600 C.2   1 <1>   0.7200 
 12 O       -4.4980     4.2860    -1.3060 O.2   1 <1>  -0.5700 
 13 N       -5.5740     2.5490    -0.3090 N.2   1 <1>  -0.6610 
 14 C       -5.5130     1.4100     0.2980 C.2   1 <1>   0.3280 
 15 C       -6.7970     0.7600     0.7660 C.3   1 <1>   0.0610 
 16 H       -7.6480     1.4290     0.5900 H.spc     1 <1>   0.0000 
 17 H       -6.7080     0.6370     1.8530 H.spc     1 <1>   0.0000 
 18 C       -6.9970    -0.6100     0.0690 C.3   1 <1>   0.0000 
 19 C       -7.7810    -0.4090    -1.2410 C.3   1 <1>   0.0000 
 20 H       -7.2460     0.2590    -1.9250 H.spc     1 <1>   0.0000 
 21 H       -8.7670     0.0300    -1.0510 H.spc     1 <1>   0.0000 
 22 H       -7.9370    -1.3630    -1.7580 H.spc     1 <1>   0.0000 
 23 C       -7.8310    -1.5110     0.9990 C.3   1 <1>   0.0000 
 24 H       -8.7840    -1.0360     1.2590 H.spc     1 <1>   0.0000 
 25 H       -7.2950    -1.7190     1.9320 H.spc     1 <1>   0.0000 
 26 H       -8.0570    -2.4720     0.5240 H.spc     1 <1>   0.0000 
 27 C       -5.6550    -1.3130    -0.2620 C.3   1 <1>   0.0610 
 28 H       -5.7400    -2.4030    -0.1780 H.spc     1 <1>   0.0000 
 29 H       -5.3360    -1.1070    -1.2910 H.spc     1 <1>   0.0000 
 30 C       -4.5400    -0.8320     0.6430 C.2   1 <1>   0.4480 
 31 O       -3.9150    -1.6050     1.3650 O.2   1 <1>  -0.5700 
 32 C       -4.2390     0.6570     0.5990 C.3   1 <1>   0.1220 
 33 H       -3.9210     0.9650     1.6020 H.spc     1 <1>   0.0000 
 34 C       -1.1750     0.3930     0.9160 C.ar  1 <1>  -0.1500 
 35 H       -1.6250     0.8290     1.8050 H.spc     1 <1>   0.1500 
 36 C        0.0950    -0.1780     1.0340 C.ar  1 <1>  -0.1500 
 37 H        0.5900    -0.1730     2.0030 H.spc     1 <1>   0.1500 
 38 C        0.7240    -0.7530    -0.0750 C.ar  1 <1>  -0.1440 
 39 C        2.0990    -1.3540     0.0550 C.3   1 <1>   0.1440 
 40 H        2.2200    -2.1640    -0.6760 H.spc     1 <1>   0.0000 
 41 H        2.2060    -1.8190     1.0420 H.spc     1 <1>   0.0000 
 42 C        3.1910    -0.3150    -0.1460 C.3   1 <1>   0.0000 
 43 H        4.1780    -0.7790    -0.0490 H.spc     1 <1>   0.0000 
 44 H        3.1270     0.1420    -1.1400 H.spc     1 <1>   0.0000 
 45 H        3.1200     0.4870     0.5970 H.spc     1 <1>   0.0000 
@<TRIPOS>BOND
  1   1   2  1   
  2   2   3  ar  
  3   2  38  ar  
  4   3   4  1   
  5   3   5  ar  
  6   5   6  1   
  7   5  34  ar  
  8   6   7  1   
  9   6   8  1   
 10   6  32  1   
 11   8   9  1   
 12   8  10  1   
 13   8  11  1   
 14  11  12  2   
 15  11  13  1   
 16  13  14  2   
 17  14  15  1   
 18  14  32  1   
 19  15  16  1   
 20  15  17  1   
 21  15  18  1   
 22  18  19  1   
 23  18  23  1   
 24  18  27  1   
 25  19  20  1   
 26  19  21  1   
 27  19  22  1   
 28  23  24  1   
 29  23  25  1   
 30  23  26  1   
 31  27  28  1   
 32  27  29  1   
 33  27  30  1   
 34  30  31  2   
 35  30  32  1   
 36  32  33  1   
 37  34  35  1   
 38  34  36  ar  
 39  36  37  1   
 40  36  38  ar  
 41  38  39  1   
 42  39  40  1   
 43  39  41  1   
 44  39  42  1   
 45  42  43  1   
 46  42  44  1   
 47  42  45  1   
@<TRIPOS>SUBSTRUCTURE
  1 ****   6 GROUP 4 **** **** 0
