@<TRIPOS>MOLECULE
CHEM172
32 33 1 0 0 
SMALL
USER_CHARGES


@<TRIPOS>ATOM
  1 H       -1.3210    -0.3830     1.1510 H.spc     1 <1>   0.1500 
  2 C       -0.8550     0.3440     0.4920 C.ar  1 <1>  -0.1500 
  3 C        0.5440     0.3920     0.4780 C.ar  1 <1>  -0.1500 
  4 H        1.1030    -0.2850     1.1220 H.spc     1 <1>   0.1500 
  5 C        1.2200     1.2970    -0.3470 C.ar  1 <1>  -0.1440 
  6 C        2.7220     1.3690    -0.3360 C.3   1 <1>   0.4440 
  7 H        3.1000     1.6860    -1.3150 H.spc     1 <1>   0.0000 
  8 H        3.1550     0.3840    -0.1290 H.spc     1 <1>   0.0000 
  9 N        3.1870     2.3000     0.6660 N.am  1 <1>  -0.7300 
 10 H        2.5050     2.7730     1.2470 H.spc     1 <1>   0.3700 
 11 C        4.4820     2.6300     0.9380 C.2   1 <1>   0.5690 
 12 O        4.7360     3.4410     1.8250 O.2   1 <1>  -0.5700 
 13 C        5.5590     1.9730     0.1200 C.3   1 <1>   0.0610 
 14 H        5.4360     2.2270    -0.9360 H.spc     1 <1>   0.0000 
 15 H        5.5210     0.8890     0.2490 H.spc     1 <1>   0.0000 
 16 H        6.5380     2.3300     0.4520 H.spc     1 <1>   0.0000 
 17 C        0.4700     2.1690    -1.1450 C.ar  1 <1>  -0.1500 
 18 H        0.9720     2.8970    -1.7810 H.spc     1 <1>   0.1500 
 19 C       -0.9290     2.1260    -1.1350 C.ar  1 <1>  -0.1500 
 20 H       -1.4500     2.8280    -1.7780 H.spc     1 <1>   0.1500 
 21 C       -1.6050     1.2110    -0.3160 C.ar  1 <1>  -0.0230 
 22 N       -3.0310     1.1650    -0.2990 N.pl3 1 <1>   0.3260 
 23 C       -3.9040     1.9400    -1.0330 C.2   1 <1>   0.0370 
 24 H       -3.5820     2.6980    -1.7320 H.spc     1 <1>   0.1500 
 25 N       -5.1650     1.6580    -0.7920 N.2   1 <1>  -0.5650 
 26 C       -5.1370     0.6550     0.1370 C.2   1 <1>   0.0460 
 27 C       -6.3950     0.0750     0.6560 C.3   1 <1>   0.1810 
 28 H       -6.9760     0.8380     1.1820 H.spc     1 <1>   0.0000 
 29 H       -7.0010    -0.3150    -0.1670 H.spc     1 <1>   0.0000 
 30 H       -6.1970    -0.7460     1.3530 H.spc     1 <1>   0.0000 
 31 C       -3.8350     0.3350     0.4550 C.2   1 <1>  -0.3020 
 32 H       -3.4470    -0.4000     1.1430 H.spc     1 <1>   0.1500 
@<TRIPOS>BOND
  1   1   2  1   
  2   2   3  ar  
  3   2  21  ar  
  4   3   4  1   
  5   3   5  ar  
  6   5   6  1   
  7   5  17  ar  
  8   6   7  1   
  9   6   8  1   
 10   6   9  1   
 11   9  10  1   
 12   9  11  am  
 13  11  12  2   
 14  11  13  1   
 15  13  14  1   
 16  13  15  1   
 17  13  16  1   
 18  17  18  1   
 19  17  19  ar  
 20  19  20  1   
 21  19  21  ar  
 22  21  22  1   
 23  22  23  1   
 24  22  31  1   
 25  23  24  1   
 26  23  25  2   
 27  25  26  1   
 28  26  27  1   
 29  26  31  2   
 30  27  28  1   
 31  27  29  1   
 32  27  30  1   
 33  31  32  1   
@<TRIPOS>SUBSTRUCTURE
  1 ****  21 GROUP 4 **** **** 0
