@<TRIPOS>MOLECULE
CHEM116
24 26 1 0 0 
SMALL
USER_CHARGES


@<TRIPOS>ATOM
  1 H       -1.0460     3.2870    -2.7670 H.spc     1 <1>   0.1500 
  2 C       -0.7560     2.7230    -1.8870 C.ar  1 <1>  -0.1500 
  3 C        0.4990     2.1130    -1.7970 C.ar  1 <1>  -0.1500 
  4 H        1.1930     2.2140    -2.6290 H.spc     1 <1>   0.1500 
  5 C        0.8680     1.3770    -0.6480 C.ar  1 <1>  -0.1440 
  6 C        2.2330     0.7410    -0.5580 C.3   1 <1>   0.2040 
  7 H        2.5920     0.4660    -1.5570 H.spc     1 <1>   0.0000 
  8 H        2.1730    -0.1950     0.0110 H.spc     1 <1>   0.0000 
  9 C        3.2340     1.6350     0.0840 C.2   1 <1>   0.5390 
 10 N        3.6580     1.5790     1.3120 N.2   1 <1>  -0.5120 
 11 N        4.5380     2.6160     1.3700 N.am  1 <1>  -0.3680 
 12 H        5.0490     2.8460     2.2150 H.spc     1 <1>   0.3700 
 13 C        4.6050     3.2550     0.1700 C.2   1 <1>   0.5900 
 14 S        5.5050     4.5480    -0.2890 S.2   1 <1>  -0.3800 
 15 O        3.7600     2.6230    -0.6800 O.3   1 <1>  -0.3000 
 16 C       -0.0310     1.2690     0.4260 C.ar  1 <1>  -0.1500 
 17 H        0.2220     0.7240     1.3300 H.spc     1 <1>   0.1500 
 18 C       -1.2620     1.8800     0.3060 C.ar  1 <1>   0.0820 
 19 C       -1.6150     2.5860    -0.8190 C.ar  1 <1>   0.0820 
 20 O       -2.8680     3.1070    -0.7340 O.3   1 <1>  -0.3630 
 21 C       -3.2640     2.6460     0.5740 C.3   1 <1>   0.5600 
 22 H       -4.1650     2.0300     0.4700 H.spc     1 <1>   0.0000 
 23 H       -3.5040     3.5170     1.1950 H.spc     1 <1>   0.0000 
 24 O       -2.2490     1.8690     1.2420 O.3   1 <1>  -0.3630 
@<TRIPOS>BOND
  1   1   2  1   
  2   2   3  ar  
  3   2  19  ar  
  4   3   4  1   
  5   3   5  ar  
  6   5   6  1   
  7   5  16  ar  
  8   6   7  1   
  9   6   8  1   
 10   6   9  1   
 11   9  10  2   
 12   9  15  1   
 13  10  11  1   
 14  11  12  1   
 15  11  13  am  
 16  13  14  2   
 17  13  15  1   
 18  16  17  1   
 19  16  18  ar  
 20  18  19  ar  
 21  18  24  1   
 22  19  20  1   
 23  20  21  1   
 24  21  22  1   
 25  21  23  1   
 26  21  24  1   
@<TRIPOS>SUBSTRUCTURE
  1 ****   5 GROUP 4 **** **** 0
