@<TRIPOS>MOLECULE
CHEM121
14 14 1 0 0 
SMALL
USER_CHARGES


@<TRIPOS>ATOM
  1 H       -0.8790    -0.5220     0.1750 H.spc     1 <1>   0.5000 
  2 O        0.0700    -0.3040     0.2860 O.3   1 <1>  -0.6500 
  3 C        0.6790    -1.4740    -0.0310 C.2   1 <1>   0.8060 
  4 O       -0.0060    -2.4360    -0.3500 O.2   1 <1>  -0.5700 
  5 C        2.1260    -1.4370     0.0500 C.2   1 <1>   0.1410 
  6 N        2.9540    -2.5130    -0.2280 N.2   1 <1>  -0.5650 
  7 C        4.1690    -2.0450    -0.0300 C.2   1 <1>   0.2980 
  8 C        5.4660    -2.7350    -0.1690 C.3   1 <1>   0.1800 
  9 H        5.3200    -3.7690    -0.4950 H.spc     1 <1>   0.0000 
 10 H        5.9960    -2.7490     0.7880 H.spc     1 <1>   0.0000 
 11 H        6.0930    -2.2280    -0.9080 H.spc     1 <1>   0.0000 
 12 O        4.2140    -0.7350     0.3610 O.3   1 <1>  -0.2800 
 13 C        2.9060    -0.3590     0.4080 C.2   1 <1>  -0.0100 
 14 H        2.7050     0.6610     0.7010 H.spc     1 <1>   0.1500 
@<TRIPOS>BOND
  1   1   2  1   
  2   2   3  1   
  3   3   4  2   
  4   3   5  1   
  5   5   6  1   
  6   5  13  2   
  7   6   7  2   
  8   7   8  1   
  9   7  12  1   
 10   8   9  1   
 11   8  10  1   
 12   8  11  1   
 13  12  13  1   
 14  13  14  1   
@<TRIPOS>SUBSTRUCTURE
  1 ****   5 GROUP 4 **** **** 0
