@<TRIPOS>MOLECULE
CHEM165
23 23 1 0 0 
SMALL
USER_CHARGES


@<TRIPOS>ATOM
  1 H       -0.5070     0.3780    -0.8970 H.spc     1 <1>   0.5000 
  2 O        0.3930     0.1040    -0.6240 O.3   1 <1>  -0.6500 
  3 C        0.3010    -1.2460    -0.6360 C.2   1 <1>   0.8060 
  4 O       -0.7570    -1.7680    -0.9600 O.2   1 <1>  -0.5700 
  5 C        1.5120    -1.9470    -0.2610 C.2   1 <1>  -0.0860 
  6 C        1.6580    -3.3240    -0.3190 C.2   1 <1>  -0.0400 
  7 C        0.7560    -4.4260    -0.7210 C.3   1 <1>   0.1800 
  8 H        0.4250    -4.2920    -1.7550 H.spc     1 <1>   0.0000 
  9 H       -0.1250    -4.4550    -0.0730 H.spc     1 <1>   0.0000 
 10 H        1.2580    -5.3970    -0.6510 H.spc     1 <1>   0.0000 
 11 O        2.9040    -3.6910     0.0770 O.3   1 <1>  -0.2800 
 12 C        3.5790    -2.5570     0.3940 C.2   1 <1>  -0.0400 
 13 C        4.9780    -2.7340     0.8380 C.3   1 <1>   0.1800 
 14 H        5.2960    -3.7770     0.7500 H.spc     1 <1>   0.0000 
 15 H        5.6520    -2.1220     0.2300 H.spc     1 <1>   0.0000 
 16 H        5.0860    -2.4320     1.8840 H.spc     1 <1>   0.0000 
 17 C        2.7720    -1.4430     0.2240 C.2   1 <1>  -0.1810 
 18 C        3.1550    -0.0320     0.5070 C.3   1 <1>   0.4510 
 19 H        2.3450     0.4970     1.0200 H.spc     1 <1>   0.0000 
 20 H        4.0280     0.0060     1.1670 H.spc     1 <1>   0.0000 
 21 N        3.4780     0.6220    -0.7530 N.3   1 <1>  -0.9900 
 22 H        2.6280     0.6470    -1.3170 H.spc     1 <1>   0.3600 
 23 H        3.7110     1.5950    -0.5650 H.spc     1 <1>   0.3600 
@<TRIPOS>BOND
  1   1   2  1   
  2   2   3  1   
  3   3   4  2   
  4   3   5  1   
  5   5   6  2   
  6   5  17  1   
  7   6   7  1   
  8   6  11  1   
  9   7   8  1   
 10   7   9  1   
 11   7  10  1   
 12  11  12  1   
 13  12  13  1   
 14  12  17  2   
 15  13  14  1   
 16  13  15  1   
 17  13  16  1   
 18  17  18  1   
 19  18  19  1   
 20  18  20  1   
 21  18  21  1   
 22  21  22  1   
 23  21  23  1   
@<TRIPOS>SUBSTRUCTURE
  1 ****   5 GROUP 4 **** **** 0
