@<TRIPOS>MOLECULE
CHEM035
29 31 1 0 0 
SMALL
USER_CHARGES


@<TRIPOS>ATOM
  1 H       -2.1430    -2.6820    -0.4470 H.spc     1 <1>   0.1500 
  2 C       -2.6450    -1.7730    -0.1120 C.2   1 <1>  -0.1780 
  3 C       -1.9150    -0.6810     0.1980 C.2   1 <1>   0.1100 
  4 C       -2.5220     0.5210     0.6750 C.1   1 <1>   0.4920 
  5 N       -2.9450     1.5340     1.0530 N.1   1 <1>  -0.5570 
  6 C       -0.4950    -0.7750     0.0470 C.2   1 <1>   0.1420 
  7 N        0.2480    -1.7810    -0.3810 N.2   1 <1>  -0.5650 
  8 C        1.5500    -1.3470    -0.3300 C.ar  1 <1>   0.2270 
  9 C        2.7340    -2.0150    -0.6730 C.ar  1 <1>  -0.1500 
 10 H        2.6990    -3.0330    -1.0440 H.spc     1 <1>   0.1500 
 11 C        3.9510    -1.3380    -0.5260 C.ar  1 <1>  -0.1500 
 12 H        4.8780    -1.8430    -0.7880 H.spc     1 <1>   0.1500 
 13 C        3.9880    -0.0260    -0.0490 C.ar  1 <1>  -0.1500 
 14 H        4.9470     0.4770     0.0560 H.spc     1 <1>   0.1500 
 15 C        2.8150     0.6560     0.2980 C.ar  1 <1>  -0.1500 
 16 H        2.8450     1.6740     0.6690 H.spc     1 <1>   0.1500 
 17 C        1.6170    -0.0440     0.1410 C.ar  1 <1>  -0.1520 
 18 N        0.3100     0.2990     0.3750 N.pl3 1 <1>   0.0330 
 19 H        0.0030     1.1950     0.7290 H.spc     1 <1>   0.2700 
 20 C       -4.1060    -1.9070    -0.0170 C.ar  1 <1>   0.0280 
 21 C       -4.6430    -2.9180     0.7800 C.ar  1 <1>  -0.1500 
 22 H       -4.0100    -3.5930     1.3470 H.spc     1 <1>   0.1500 
 23 C       -6.0210    -3.0470     0.8410 C.ar  1 <1>   0.1600 
 24 H       -6.4840    -3.8170     1.4520 H.spc     1 <1>   0.1500 
 25 N       -6.8790    -2.2550     0.1660 N.ar  1 <1>  -0.6200 
 26 C       -6.3360    -1.2910    -0.6080 C.ar  1 <1>   0.1600 
 27 H       -7.0490    -0.6720    -1.1440 H.spc     1 <1>   0.1500 
 28 C       -4.9720    -1.0830    -0.7370 C.ar  1 <1>  -0.1500 
 29 H       -4.6090    -0.2980    -1.3910 H.spc     1 <1>   0.1500 
@<TRIPOS>BOND
  1   1   2  1   
  2   2   3  2   
  3   2  20  1   
  4   3   4  1   
  5   3   6  1   
  6   4   5  3   
  7   6   7  2   
  8   6  18  1   
  9   7   8  1   
 10   8   9  ar  
 11   8  17  ar  
 12   9  10  1   
 13   9  11  ar  
 14  11  12  1   
 15  11  13  ar  
 16  13  14  1   
 17  13  15  ar  
 18  15  16  1   
 19  15  17  ar  
 20  17  18  1   
 21  18  19  1   
 22  20  21  ar  
 23  20  28  ar  
 24  21  22  1   
 25  21  23  ar  
 26  23  24  1   
 27  23  25  ar  
 28  25  26  ar  
 29  26  27  1   
 30  26  28  ar  
 31  28  29  1   
@<TRIPOS>SUBSTRUCTURE
  1 ****   3 GROUP 4 **** **** 0
