@<TRIPOS>MOLECULE
CHEM094
32 33 1 0 0 
SMALL
USER_CHARGES


@<TRIPOS>ATOM
  1 H        6.2850     3.7850    -1.3590 H.spc     1 <1>   0.1500 
  2 C        5.2040     3.7460    -1.2340 C.ar  1 <1>  -0.1500 
  3 C        4.4270     2.9950    -2.1120 C.ar  1 <1>  -0.1500 
  4 H        4.9000     2.4460    -2.9240 H.spc     1 <1>   0.1500 
  5 C        3.0420     2.9380    -1.9460 C.ar  1 <1>  -0.1500 
  6 H        2.4510     2.3340    -2.6350 H.spc     1 <1>   0.1500 
  7 C        2.4240     3.6410    -0.9020 C.ar  1 <1>   0.0860 
  8 C        3.2040     4.4020    -0.0330 C.ar  1 <1>   0.0860 
  9 C        4.5960     4.4480    -0.1930 C.ar  1 <1>  -0.1500 
 10 H        5.2140     5.0320     0.4890 H.spc     1 <1>   0.1500 
 11 C        2.5920     5.1640     1.0630 C.2   1 <1>   0.4840 
 12 O        3.2570     5.6030     1.9880 O.2   1 <1>  -0.5700 
 13 C        1.1030     5.4090     1.0120 C.2   1 <1>   0.5090 
 14 O        0.6440     6.4280     1.5100 O.2   1 <1>  -0.5700 
 15 C        0.2880     4.3000     0.3950 C.3   1 <1>   0.4220 
 16 H        0.1850     3.5600     1.2030 H.spc     1 <1>   0.0000 
 17 N       -1.0820     4.7390     0.0330 N.am  1 <1>  -0.6600 
 18 C       -1.4100     5.6030    -1.0070 C.2   1 <1>   0.5690 
 19 O       -2.5750     5.9040    -1.2720 O.2   1 <1>  -0.5700 
 20 C       -0.2960     6.1620    -1.8560 C.3   1 <1>   0.0610 
 21 H        0.0910     5.3880    -2.5230 H.spc     1 <1>   0.0000 
 22 H        0.5090     6.5760    -1.2480 H.spc     1 <1>   0.0000 
 23 H       -0.6910     6.9760    -2.4720 H.spc     1 <1>   0.0000 
 24 C       -2.1800     4.2110     0.8470 C.3   1 <1>   0.3000 
 25 H       -1.8600     4.1900     1.8950 H.spc     1 <1>   0.0000 
 26 H       -3.0430     4.8830     0.7970 H.spc     1 <1>   0.0000 
 27 C       -2.6070     2.8250     0.3900 C.3   1 <1>   0.0000 
 28 H       -1.7870     2.1060     0.4830 H.spc     1 <1>   0.0000 
 29 H       -2.9240     2.8380    -0.6580 H.spc     1 <1>   0.0000 
 30 H       -3.4440     2.4660     0.9970 H.spc     1 <1>   0.0000 
 31 C        0.9560     3.5240    -0.7290 C.2   1 <1>   0.4230 
 32 O        0.3340     2.7630    -1.4670 O.2   1 <1>  -0.5700 
@<TRIPOS>BOND
  1   1   2  1   
  2   2   3  ar  
  3   2   9  ar  
  4   3   4  1   
  5   3   5  ar  
  6   5   6  1   
  7   5   7  ar  
  8   7   8  ar  
  9   7  31  1   
 10   8   9  ar  
 11   8  11  1   
 12   9  10  1   
 13  11  12  2   
 14  11  13  1   
 15  13  14  2   
 16  13  15  1   
 17  15  16  1   
 18  15  17  1   
 19  15  31  1   
 20  17  18  am  
 21  17  24  1   
 22  18  19  2   
 23  18  20  1   
 24  20  21  1   
 25  20  22  1   
 26  20  23  1   
 27  24  25  1   
 28  24  26  1   
 29  24  27  1   
 30  27  28  1   
 31  27  29  1   
 32  27  30  1   
 33  31  32  2   
@<TRIPOS>SUBSTRUCTURE
  1 ****  31 GROUP 4 **** **** 0
