@<TRIPOS>MOLECULE
CHEM058
21 22 1 0 0 
SMALL
USER_CHARGES


@<TRIPOS>ATOM
  1 H        0.4760    -1.3930     0.9560 H.spc     1 <1>   0.1500 
  2 C        0.5340    -0.3370     0.7030 C.ar  1 <1>  -0.1500 
  3 C       -0.6320     0.3720     0.4350 C.ar  1 <1>   0.1770 
  4 CL      -2.1530    -0.4310     0.4880 Cl    1 <1>  -0.1770 
  5 C       -0.5800     1.7320     0.1350 C.ar  1 <1>  -0.1500 
  6 H       -1.5050     2.2690    -0.0640 H.spc     1 <1>   0.1500 
  7 C        0.6520     2.4060     0.0920 C.ar  1 <1>  -0.1440 
  8 C        0.6600     3.8770    -0.2290 C.3   1 <1>   0.1440 
  9 H        1.2910     4.0730    -1.1020 H.spc     1 <1>   0.0000 
 10 H        1.0280     4.4490     0.6280 H.spc     1 <1>   0.0000 
 11 H       -0.3450     4.2440    -0.4650 H.spc     1 <1>   0.0000 
 12 C        1.8370     1.6850     0.3480 C.ar  1 <1>   0.1170 
 13 C        1.7710     0.3140     0.6580 C.ar  1 <1>   0.1020 
 14 S        3.2190    -0.6260     1.1070 S.3   1 <1>  -0.3320 
 15 C        4.4460     0.3130     0.1790 C.3   1 <1>   0.2910 
 16 H        5.4420     0.0020     0.5100 H.spc     1 <1>   0.0000 
 17 H        4.3520     0.0870    -0.8880 H.spc     1 <1>   0.0000 
 18 C        4.3140     1.8050     0.3640 C.2   1 <1>   0.5690 
 19 O        5.3020     2.5390     0.4220 O.2   1 <1>  -0.5700 
 20 N        3.0670     2.3660     0.3330 N.am  1 <1>  -0.5470 
 21 H        3.0780     3.3770     0.3010 H.spc     1 <1>   0.3700 
@<TRIPOS>BOND
  1   1   2  1   
  2   2   3  ar  
  3   2  13  ar  
  4   3   4  1   
  5   3   5  ar  
  6   5   6  1   
  7   5   7  ar  
  8   7   8  1   
  9   7  12  ar  
 10   8   9  1   
 11   8  10  1   
 12   8  11  1   
 13  12  13  ar  
 14  12  20  1   
 15  13  14  1   
 16  14  15  1   
 17  15  16  1   
 18  15  17  1   
 19  15  18  1   
 20  18  19  2   
 21  18  20  am  
 22  20  21  1   
@<TRIPOS>SUBSTRUCTURE
  1 ****  12 GROUP 4 **** **** 0
