@<TRIPOS>MOLECULE
CHEM167
21 20 1 0 0 
SMALL
USER_CHARGES


@<TRIPOS>ATOM
  1 H       -0.6900    -2.7740    -0.2830 H.spc     1 <1>   0.5000 
  2 O       -0.0670    -2.0250    -0.3930 O.3   1 <1>  -0.6500 
  3 C        1.0870    -2.4610     0.1480 C.2   1 <1>   0.6590 
  4 O        1.1610    -3.5770     0.6430 O.2   1 <1>  -0.5700 
  5 C        2.2110    -1.4330     0.0880 C.3   1 <1>   0.3610 
  6 H        2.2180    -0.9780    -0.9090 H.spc     1 <1>   0.0000 
  7 N        3.4790    -2.1380     0.2680 N.am  1 <1>  -0.7300 
  8 H        3.4470    -3.0560     0.7010 H.spc     1 <1>   0.3700 
  9 C        4.6800    -1.6040    -0.1340 C.2   1 <1>   0.5690 
 10 O        4.7800    -0.5080    -0.6710 O.2   1 <1>  -0.5700 
 11 C        5.8560    -2.5160     0.1560 C.3   1 <1>   0.0610 
 12 H        5.6950    -3.4660    -0.3650 H.spc     1 <1>   0.0000 
 13 H        5.8800    -2.7190     1.2330 H.spc     1 <1>   0.0000 
 14 C        7.1790    -1.9140    -0.2780 C.3   1 <1>   0.0000 
 15 H        8.0030    -2.5980    -0.0510 H.spc     1 <1>   0.0000 
 16 H        7.1860    -1.7160    -1.3550 H.spc     1 <1>   0.0000 
 17 H        7.3690    -0.9670     0.2380 H.spc     1 <1>   0.0000 
 18 C        2.0050    -0.3780     1.1650 C.3   1 <1>   0.0000 
 19 H        2.0010    -0.8280     2.1640 H.spc     1 <1>   0.0000 
 20 H        2.8010     0.3730     1.1430 H.spc     1 <1>   0.0000 
 21 H        1.0480     0.1380     1.0310 H.spc     1 <1>   0.0000 
@<TRIPOS>BOND
  1   1   2  1   
  2   2   3  1   
  3   3   4  2   
  4   3   5  1   
  5   5   6  1   
  6   5   7  1   
  7   5  18  1   
  8   7   8  1   
  9   7   9  am  
 10   9  10  2   
 11   9  11  1   
 12  11  12  1   
 13  11  13  1   
 14  11  14  1   
 15  14  15  1   
 16  14  16  1   
 17  14  17  1   
 18  18  19  1   
 19  18  20  1   
 20  18  21  1   
@<TRIPOS>SUBSTRUCTURE
  1 ****   7 GROUP 4 **** **** 0
