@<TRIPOS>MOLECULE
CHEM014
16 16 1 0 0 
SMALL
USER_CHARGES


@<TRIPOS>ATOM
  1 H        8.6450    -2.5420    -0.2000 H.spc      1 <1>   0.4000 
  2 O        7.6750    -2.4850    -0.2180 O.3   1 <1>  -0.6800 
  3 C        7.1840    -3.7890     0.0450 C.3   1 <1>   0.4800 
  4 H        7.5720    -4.4700    -0.7190 H.spc      1 <1>   0.0000 
  5 H        7.5550    -4.1110     1.0230 H.spc      1 <1>   0.0000 
  6 C        5.7230    -3.7650     0.0260 C.1   1 <1>  -0.2000 
  7 C        4.5220    -3.7310     0.0080 C.1   1 <1>  -0.0730 
  8 C        3.0980    -3.6720    -0.0140 C.ar  1 <1>   0.0730 
  9 C        2.4120    -2.4770    -0.0390 C.ar  1 <1>   0.1600 
 10 H        2.9360    -1.5250    -0.0430 H.spc      1 <1>   0.1500 
 11 N        1.0630    -2.3860    -0.0600 N.ar  1 <1>  -0.6200 
 12 C        0.4040    -3.5560    -0.0560 C.ar  1 <1>   0.4700 
 13 H       -0.6800    -3.5090    -0.0720 H.spc      1 <1>   0.1500 
 14 N        0.9600    -4.7790    -0.0330 N.ar  1 <1>  -0.6200 
 15 C        2.3110    -4.8040    -0.0130 C.ar  1 <1>   0.1600 
 16 H        2.7490    -5.7980     0.0050 H.spc      1 <1>   0.1500 
@<TRIPOS>BOND
  1   1   2  1   
  2   2   3  1   
  3   3   4  1   
  4   3   5  1   
  5   3   6  1   
  6   6   7  3   
  7   7   8  1   
  8   8   9  ar  
  9   8  15  ar  
 10   9  10  1   
 11   9  11  ar  
 12  11  12  ar  
 13  12  13  1   
 14  12  14  ar  
 15  14  15  ar  
 16  15  16  1   
@<TRIPOS>SUBSTRUCTURE
  1 ****   8 GROUP 4 **** **** 0
