@<TRIPOS>MOLECULE
CHEM119
27 28 1 0 0 
SMALL
USER_CHARGES


@<TRIPOS>ATOM
  1 H        1.5190     2.7420     0.1200 H.spc     1 <1>   0.1500 
  2 C        0.5750     2.2030     0.1110 C.ar  1 <1>  -0.1500 
  3 C       -0.6230     2.9220     0.1200 C.ar  1 <1>   0.0820 
  4 O       -0.7460     4.2810     0.1350 O.3   1 <1>  -0.3630 
  5 C        0.4520     5.0450     0.1660 C.3   1 <1>   0.2800 
  6 H        1.0280     4.8390     1.0750 H.spc     1 <1>   0.0000 
  7 H        1.0540     4.8730    -0.7320 H.spc     1 <1>   0.0000 
  8 H        0.1740     6.1030     0.1820 H.spc     1 <1>   0.0000 
  9 C       -1.7990     2.1920     0.1120 C.ar  1 <1>   0.0820 
 10 C       -1.8160     0.8120     0.1030 C.ar  1 <1>   0.0820 
 11 C       -0.6400     0.0750     0.0970 C.ar  1 <1>   0.0820 
 12 O       -0.5230    -1.2890     0.0990 O.3   1 <1>  -0.3630 
 13 C       -1.7160    -2.0600     0.1670 C.3   1 <1>   0.2800 
 14 H       -2.2710    -1.8530     1.0870 H.spc     1 <1>   0.0000 
 15 H       -2.3320    -1.9150    -0.7260 H.spc     1 <1>   0.0000 
 16 H       -1.4250    -3.1150     0.1930 H.spc     1 <1>   0.0000 
 17 C        0.5860     0.7830     0.0900 C.ar  1 <1>  -0.1440 
 18 C        1.8830    -0.0170     0.0880 C.3   1 <1>   0.3440 
 19 H        1.9390    -0.5750     1.0310 H.spc     1 <1>   0.0000 
 20 H        1.8400    -0.7470    -0.7300 H.spc     1 <1>   0.0000 
 21 C        3.1250     0.7540    -0.0720 C.1   1 <1>   0.3570 
 22 N        4.1030     1.3690    -0.1930 N.1   1 <1>  -0.5570 
 23 O       -3.0930     0.3320     0.1000 O.3   1 <1>  -0.3630 
 24 C       -3.8640     1.5460     0.1040 C.3   1 <1>   0.5600 
 25 H       -4.5000     1.5600    -0.7890 H.spc     1 <1>   0.0000 
 26 H       -4.5080     1.5490     0.9910 H.spc     1 <1>   0.0000 
 27 O       -3.0550     2.7290     0.1150 O.3   1 <1>  -0.3630 
@<TRIPOS>BOND
  1   1   2  1   
  2   2   3  ar  
  3   2  17  ar  
  4   3   4  1   
  5   3   9  ar  
  6   4   5  1   
  7   5   6  1   
  8   5   7  1   
  9   5   8  1   
 10   9  10  ar  
 11   9  27  1   
 12  10  11  ar  
 13  10  23  1   
 14  11  12  1   
 15  11  17  ar  
 16  12  13  1   
 17  13  14  1   
 18  13  15  1   
 19  13  16  1   
 20  17  18  1   
 21  18  19  1   
 22  18  20  1   
 23  18  21  1   
 24  21  22  3   
 25  23  24  1   
 26  24  25  1   
 27  24  26  1   
 28  24  27  1   
@<TRIPOS>SUBSTRUCTURE
  1 ****  17 GROUP 4 **** **** 0
