@<TRIPOS>MOLECULE
CHEM113
22 23 1 0 0 
SMALL
USER_CHARGES


@<TRIPOS>ATOM
  1 H       -0.6370     3.7940    -0.0390 H.spc     1 <1>   0.4000 
  2 N        0.3860     3.7870    -0.0750 N.2   1 <1>  -0.8500 
  3 C        0.8060     2.5720    -0.0590 C.2   1 <1>   0.4140 
  4 C        2.2390     2.1870    -0.0960 C.ar  1 <1>   0.0860 
  5 C        3.4240     2.9030    -0.1570 C.ar  1 <1>  -0.1440 
  6 C        3.3850     4.3990    -0.2050 C.3   1 <1>   0.1440 
  7 H        4.3490     4.8540    -0.4380 H.spc     1 <1>   0.0000 
  8 H        3.0530     4.7970     0.7600 H.spc     1 <1>   0.0000 
  9 H        2.7000     4.7380    -0.9900 H.spc     1 <1>   0.0000 
 10 C        4.5950     2.1200    -0.1340 C.ar  1 <1>   0.1110 
 11 BR       6.3160     2.9460    -0.1600 Br    1 <1>  -0.1110 
 12 C        4.5000     0.7010    -0.0820 C.ar  1 <1>   0.1660 
 13 C        5.7200    -0.1790    -0.0610 C.3   1 <1>   0.1440 
 14 H        5.4340    -1.2360    -0.0290 H.spc     1 <1>   0.0000 
 15 H        6.3260     0.0240     0.8280 H.spc     1 <1>   0.0000 
 16 H        6.3210    -0.0290    -0.9640 H.spc     1 <1>   0.0000 
 17 N        3.3160     0.0220    -0.0410 N.ar  1 <1>  -0.6200 
 18 C        2.2220     0.7850    -0.0450 C.ar  1 <1>   0.4100 
 19 N        0.8890     0.3360     0.0090 N.pl3 1 <1>  -0.5000 
 20 H        0.6550    -0.6460     0.0480 H.spc     1 <1>   0.4000 
 21 N        0.0640     1.4100     0.0000 N.pl3 1 <1>  -0.4500 
 22 H       -0.9470     1.3600     0.0320 H.spc     1 <1>   0.4000 
@<TRIPOS>BOND
  1   1   2  1   
  2   2   3  2   
  3   3   4  1   
  4   3  21  1   
  5   4   5  ar  
  6   4  18  ar  
  7   5   6  1   
  8   5  10  ar  
  9   6   7  1   
 10   6   8  1   
 11   6   9  1   
 12  10  11  1   
 13  10  12  ar  
 14  12  13  1   
 15  12  17  ar  
 16  13  14  1   
 17  13  15  1   
 18  13  16  1   
 19  17  18  ar  
 20  18  19  1   
 21  19  20  1   
 22  19  21  1   
 23  21  22  1   
@<TRIPOS>SUBSTRUCTURE
  1 ****   4 GROUP 4 **** **** 0
