@<TRIPOS>MOLECULE
CHEM087
22 22 1 0 0 
SMALL
USER_CHARGES


@<TRIPOS>ATOM
  1 H        0.2080    -0.2800    -0.5510 H.spc     1 <1>   0.0000 
  2 C        0.9510     0.4210    -0.9450 C.3   1 <1>   0.0000 
  3 H        1.0470     1.2470    -0.2340 H.spc     1 <1>   0.0000 
  4 H        0.5660     0.8360    -1.8820 H.spc     1 <1>   0.0000 
  5 C        2.2890    -0.2640    -1.1870 C.3   1 <1>   0.0950 
  6 H        3.0240     0.4830    -1.5120 H.spc     1 <1>   0.0000 
  7 H        2.1640    -0.9540    -2.0290 H.spc     1 <1>   0.0000 
  8 C        2.8330    -0.9810     0.0560 C.3   1 <1>  -0.1900 
  9 C        3.1240    -0.0140     1.1970 C.3   1 <1>   0.0950 
 10 H        3.6350    -0.4790     2.0450 H.spc     1 <1>   0.0000 
 11 H        3.7580     0.8060     0.8430 H.spc     1 <1>   0.0000 
 12 H        2.1920     0.4120     1.5840 H.spc     1 <1>   0.0000 
 13 C        3.7660    -2.1940    -0.1370 C.3   1 <1>   0.2100 
 14 C        4.1090    -2.6320    -1.4630 C.1   1 <1>   0.4520 
 15 N        4.3680    -2.9780    -2.5380 N.1   1 <1>  -0.5570 
 16 C        4.8800    -2.3950     0.7500 C.1   1 <1>   0.4520 
 17 N        5.7690    -2.5480     1.4780 N.1   1 <1>  -0.5570 
 18 C        2.3530    -2.4080     0.3820 C.3   1 <1>   0.2100 
 19 C        1.3860    -3.0540    -0.4630 C.1   1 <1>   0.4520 
 20 N        0.6130    -3.5630    -1.1610 N.1   1 <1>  -0.5570 
 21 C        2.1470    -2.7830     1.7540 C.1   1 <1>   0.4520 
 22 N        1.9970    -3.0690     2.8670 N.1   1 <1>  -0.5570 
@<TRIPOS>BOND
  1   1   2  1   
  2   2   3  1   
  3   2   4  1   
  4   2   5  1   
  5   5   6  1   
  6   5   7  1   
  7   5   8  1   
  8   8   9  1   
  9   8  13  1   
 10   8  18  1   
 11   9  10  1   
 12   9  11  1   
 13   9  12  1   
 14  13  14  1   
 15  13  16  1   
 16  13  18  1   
 17  14  15  3   
 18  16  17  3   
 19  18  19  1   
 20  18  21  1   
 21  19  20  3   
 22  21  22  3   
@<TRIPOS>SUBSTRUCTURE
  1 ****  18 GROUP 4 **** **** 0
