@<TRIPOS>MOLECULE
CHEM114
29 30 1 0 0 
SMALL
USER_CHARGES


@<TRIPOS>ATOM
  1 H        4.2280     6.5980    -0.0290 H.spc     1 <1>   0.1500 
  2 C        3.3540     5.9530    -0.0120 C.ar  1 <1>  -0.1500 
  3 C        3.0130     5.2110    -1.1410 C.ar  1 <1>  -0.1500 
  4 H        3.6220     5.2790    -2.0390 H.spc     1 <1>   0.1500 
  5 C        1.8920     4.3800    -1.1200 C.ar  1 <1>  -0.1500 
  6 H        1.6360     3.8100    -2.0110 H.spc     1 <1>   0.1500 
  7 C        1.1040     4.2810     0.0350 C.ar  1 <1>  -0.1440 
  8 C       -0.1340     3.4120     0.0500 C.3   1 <1>   0.3240 
  9 H       -0.1880     2.9010     1.0200 H.spc     1 <1>   0.0000 
 10 H       -0.0330     2.6180    -0.7020 H.spc     1 <1>   0.0000 
 11 C       -1.4190     4.1500    -0.1980 C.2   1 <1>  -0.3320 
 12 C       -2.7350     3.7510     0.0040 C.2   1 <1>  -0.1810 
 13 C       -3.2030     2.4450     0.5460 C.3   1 <1>   0.1810 
 14 H       -4.0440     2.0590    -0.0390 H.spc     1 <1>   0.0000 
 15 H       -2.4100     1.6910     0.5200 H.spc     1 <1>   0.0000 
 16 H       -3.5280     2.5630     1.5850 H.spc     1 <1>   0.0000 
 17 C       -3.5660     4.8420    -0.4030 C.2   1 <1>   0.0190 
 18 C       -4.9950     4.8920    -0.3680 C.1   1 <1>   0.5380 
 19 N       -6.1560     4.9230    -0.3360 N.1   1 <1>  -0.5570 
 20 C       -2.7450     5.8580    -0.8430 C.2   1 <1>  -0.0680 
 21 N       -2.9960     7.0870    -1.3290 N.pl3 1 <1>  -0.8840 
 22 H       -2.2750     7.7430    -1.6160 H.spc     1 <1>   0.4000 
 23 H       -3.9450     7.4400    -1.4400 H.spc     1 <1>   0.4000 
 24 N       -1.4530     5.4280    -0.7150 N.pl3 1 <1>   0.0330 
 25 H       -0.6390     5.9740    -0.9610 H.spc     1 <1>   0.2700 
 26 C        1.4540     5.0350     1.1650 C.ar  1 <1>  -0.1500 
 27 H        0.8500     4.9810     2.0690 H.spc     1 <1>   0.1500 
 28 C        2.5750     5.8650     1.1410 C.ar  1 <1>  -0.1500 
 29 H        2.8420     6.4430     2.0220 H.spc     1 <1>   0.1500 
@<TRIPOS>BOND
  1   1   2  1   
  2   2   3  ar  
  3   2  28  ar  
  4   3   4  1   
  5   3   5  ar  
  6   5   6  1   
  7   5   7  ar  
  8   7   8  1   
  9   7  26  ar  
 10   8   9  1   
 11   8  10  1   
 12   8  11  1   
 13  11  12  2   
 14  11  24  1   
 15  12  13  1   
 16  12  17  1   
 17  13  14  1   
 18  13  15  1   
 19  13  16  1   
 20  17  18  1   
 21  17  20  2   
 22  18  19  3   
 23  20  21  1   
 24  20  24  1   
 25  21  22  1   
 26  21  23  1   
 27  24  25  1   
 28  26  27  1   
 29  26  28  ar  
 30  28  29  1   
@<TRIPOS>SUBSTRUCTURE
  1 ****  11 GROUP 4 **** **** 0
