@<TRIPOS>MOLECULE
CHEM140
31 31 1 0 0 
SMALL
USER_CHARGES


@<TRIPOS>ATOM
  1 H       -3.2620     1.0940     1.0740 H.spc     1 <1>   0.1500 
  2 C       -4.0380     0.7220     0.4030 C.2   1 <1>  -0.0500 
  3 C       -3.8270    -0.4760    -0.1740 C.2   1 <1>   0.0790 
  4 C       -4.7520    -1.1420    -1.0190 C.1   1 <1>   0.4920 
  5 N       -5.5090    -1.6560    -1.7360 N.1   1 <1>  -0.5570 
  6 C       -2.5590    -1.1930     0.1320 C.2   1 <1>   0.4690 
  7 O       -2.5740    -2.3480     0.5480 O.2   1 <1>  -0.5700 
  8 C       -1.2570    -0.4960    -0.0740 C.ar  1 <1>   0.0860 
  9 C       -0.1500    -0.9290     0.6670 C.ar  1 <1>  -0.1500 
 10 H       -0.2510    -1.7540     1.3700 H.spc     1 <1>   0.1500 
 11 C        1.0950    -0.3080     0.5150 C.ar  1 <1>  -0.1500 
 12 H        1.9230    -0.6750     1.1140 H.spc     1 <1>   0.1500 
 13 C        1.2470     0.7450    -0.3860 C.ar  1 <1>   0.0820 
 14 O        2.4000     1.4380    -0.6300 O.3   1 <1>  -0.3630 
 15 C        3.5470     1.0640     0.1230 C.3   1 <1>   0.2800 
 16 H        3.3830     1.2140     1.1950 H.spc     1 <1>   0.0000 
 17 H        3.8410     0.0320    -0.0920 H.spc     1 <1>   0.0000 
 18 H        4.3730     1.7150    -0.1820 H.spc     1 <1>   0.0000 
 19 C        0.1460     1.1640    -1.1390 C.ar  1 <1>  -0.1500 
 20 H        0.2650     1.9770    -1.8520 H.spc     1 <1>   0.1500 
 21 C       -1.1000     0.5480    -0.9930 C.ar  1 <1>  -0.1500 
 22 H       -1.9230     0.8950    -1.6130 H.spc     1 <1>   0.1500 
 23 N       -5.0800     1.6450     0.3420 N.pl3 1 <1>  -0.8380 
 24 C       -5.0320     2.9080     1.0880 C.3   1 <1>   0.3690 
 25 H       -4.0530     3.0810     1.5480 H.spc     1 <1>   0.0000 
 26 H       -5.2330     3.7520     0.4190 H.spc     1 <1>   0.0000 
 27 H       -5.7850     2.9010     1.8830 H.spc     1 <1>   0.0000 
 28 C       -6.3080     1.4530    -0.4350 C.3   1 <1>   0.3690 
 29 H       -6.9890     2.3050    -0.3290 H.spc     1 <1>   0.0000 
 30 H       -6.0760     1.3530    -1.5000 H.spc     1 <1>   0.0000 
 31 H       -6.8460     0.5650    -0.0880 H.spc     1 <1>   0.0000 
@<TRIPOS>BOND
  1   1   2  1   
  2   2   3  2   
  3   2  23  1   
  4   3   4  1   
  5   3   6  1   
  6   4   5  3   
  7   6   7  2   
  8   6   8  1   
  9   8   9  ar  
 10   8  21  ar  
 11   9  10  1   
 12   9  11  ar  
 13  11  12  1   
 14  11  13  ar  
 15  13  14  1   
 16  13  19  ar  
 17  14  15  1   
 18  15  16  1   
 19  15  17  1   
 20  15  18  1   
 21  19  20  1   
 22  19  21  ar  
 23  21  22  1   
 24  23  24  1   
 25  23  28  1   
 26  24  25  1   
 27  24  26  1   
 28  24  27  1   
 29  28  29  1   
 30  28  30  1   
 31  28  31  1   
@<TRIPOS>SUBSTRUCTURE
  1 ****   8 GROUP 4 **** **** 0
