@<TRIPOS>MOLECULE
CHEM034
17 18 1 0 0 
SMALL
NO_CHARGES


@<TRIPOS>ATOM
  1 H       -1.1640     0.4290     0.0000 H.spc     1 <1>   0.0000 
  2 O       -0.0220     0.0580     0.0000 O.3   1 <1>   0.0000 
  3 B        1.0920     1.0620     0.0000 B     1 <1>   0.0000 
  4 O        0.9360     2.5540     0.0000 O.3   1 <1>   0.0000 
  5 C        2.3060     3.1640     0.0000 C.3   1 <1>   0.0000 
  6 H        3.2770     3.8690     0.0000 H.spc     1 <1>   0.0000 
  7 H        1.7060     4.2030     0.0000 H.spc     1 <1>   0.0000 
  8 C        3.3100     2.0490     0.0000 C.ar  1 <1>   0.0000 
  9 C        4.8100     2.0490     0.0000 C.ar  1 <1>   0.0000 
 10 H        5.4100     3.0890     0.0000 H.spc     1 <1>   0.0000 
 11 C        5.5600     0.7500     0.0000 C.ar  1 <1>   0.0000 
 12 H        6.7600     0.7500     0.0000 H.spc     1 <1>   0.0000 
 13 C        4.8100    -0.5490     0.0000 C.ar  1 <1>   0.0000 
 14 H        5.4100    -1.5880     0.0000 H.spc     1 <1>   0.0000 
 15 C        3.3100    -0.5490     0.0000 C.ar  1 <1>   0.0000 
 16 H        2.7100    -1.5880     0.0000 H.spc     1 <1>   0.0000 
 17 C        2.5600     0.7500     0.0000 C.ar  1 <1>   0.0000 
@<TRIPOS>BOND
  1   1   2  1   
  2   2   3  1   
  3   3   4  1   
  4   3  17  1   
  5   4   5  1   
  6   5   6  1   
  7   5   7  1   
  8   5   8  1   
  9   8   9  ar  
 10   8  17  ar  
 11   9  10  1   
 12   9  11  ar  
 13  11  12  1   
 14  11  13  ar  
 15  13  14  1   
 16  13  15  ar  
 17  15  16  1   
 18  15  17  ar  
@<TRIPOS>SUBSTRUCTURE
  1 ****  17 GROUP 4 **** **** 0
