@<TRIPOS>MOLECULE
CHEM154
19 19 1 0 0 
SMALL
USER_CHARGES


@<TRIPOS>ATOM
  1 H        3.9810    -0.0670    -0.1180 H.spc     1 <1>   0.4000 
  2 N        3.1610     0.5380    -0.1040 N.2   1 <1>  -0.8500 
  3 C        3.5310     1.7660    -0.0130 C.2   1 <1>   0.5500 
  4 N        4.8460     2.0650     0.0450 N.pl3 1 <1>  -0.8500 
  5 H        5.5430     1.3360     0.0160 H.spc     1 <1>   0.4000 
  6 H        5.1870     3.0110     0.1200 H.spc     1 <1>   0.4000 
  7 N        2.7380     2.8710     0.0330 N.pl3 1 <1>  -0.5500 
  8 H        3.2090     3.7580     0.0960 H.spc     1 <1>   0.4000 
  9 C        1.3340     2.9790     0.0060 C.ar  1 <1>   0.1000 
 10 C        0.4630     1.8830    -0.0570 C.ar  1 <1>  -0.1500 
 11 H        0.8460     0.8680    -0.0850 H.spc     1 <1>   0.1500 
 12 C       -0.9250     2.0590    -0.0850 C.ar  1 <1>  -0.1500 
 13 H       -1.5860     1.2000    -0.1330 H.spc     1 <1>   0.1500 
 14 C       -1.4560     3.3390    -0.0510 C.ar  1 <1>   0.1900 
 15 F       -2.7840     3.5090    -0.0780 F     1 <1>  -0.1900 
 16 C       -0.6240     4.4480     0.0110 C.ar  1 <1>  -0.1500 
 17 H       -1.0550     5.4430     0.0370 H.spc     1 <1>   0.1500 
 18 C        0.7620     4.2660     0.0390 C.ar  1 <1>  -0.1500 
 19 H        1.3950     5.1480     0.0860 H.spc     1 <1>   0.1500 
@<TRIPOS>BOND
  1   1   2  1   
  2   2   3  2   
  3   3   4  1   
  4   3   7  1   
  5   4   5  1   
  6   4   6  1   
  7   7   8  1   
  8   7   9  1   
  9   9  10  ar  
 10   9  18  ar  
 11  10  11  1   
 12  10  12  ar  
 13  12  13  1   
 14  12  14  ar  
 15  14  15  1   
 16  14  16  ar  
 17  16  17  1   
 18  16  18  ar  
 19  18  19  1   
@<TRIPOS>SUBSTRUCTURE
  1 ****   9 GROUP 4 **** **** 0
