@<TRIPOS>MOLECULE
CHEM099
26 26 1 0 0 
SMALL
USER_CHARGES


@<TRIPOS>ATOM
  1 H        3.1500     2.7230     2.1210 H.spc     1 <1>   0.4000 
  2 N        3.8290     2.0160     1.8030 N.2   1 <1>  -0.8500 
  3 C        3.3450     1.1300     0.9970 C.2   1 <1>   0.3280 
  4 C        1.9180     1.0590     0.5130 C.3   1 <1>   0.2610 
  5 H        1.8760     1.6130    -0.4350 H.spc     1 <1>   0.0000 
  6 C        0.9440     1.6190     1.4460 C.1   1 <1>   0.3570 
  7 N        0.1730     2.0710     2.1820 N.1   1 <1>  -0.5570 
  8 C        1.7710    -0.4570     0.2760 C.3   1 <1>   0.4000 
  9 C        1.5400    -1.1900     1.5380 C.1   1 <1>   0.3570 
 10 N        1.4230    -1.7600     2.5390 N.1   1 <1>  -0.5570 
 11 C        0.6820    -0.7040    -0.6820 C.1   1 <1>   0.3570 
 12 N       -0.1540    -0.8700    -1.4680 N.1   1 <1>  -0.5570 
 13 C        3.1510    -0.8410    -0.3520 C.3   1 <1>   0.0000 
 14 H        3.1220    -0.5210    -1.4060 H.spc     1 <1>   0.0000 
 15 C        3.4530    -2.3420    -0.4050 C.3   1 <1>   0.0000 
 16 H        2.6790    -2.8730    -0.9680 H.spc     1 <1>   0.0000 
 17 H        3.5160    -2.7970     0.5880 H.spc     1 <1>   0.0000 
 18 H        4.4080    -2.5190    -0.9130 H.spc     1 <1>   0.0000 
 19 C        4.2030     0.0170     0.4130 C.3   1 <1>   0.3010 
 20 N        5.1080     0.6620    -0.6270 N.pl3 1 <1>   0.8000 
 21 O        4.5990     1.5410    -1.3380 O.2   1 <1>  -0.5200 
 22 O        6.2480     0.2050    -0.7670 O.2   1 <1>  -0.5200 
 23 C        5.0290    -0.6740     1.4940 C.3   1 <1>   0.0000 
 24 H        4.3910    -1.0660     2.2930 H.spc     1 <1>   0.0000 
 25 H        5.6170    -1.5080     1.0960 H.spc     1 <1>   0.0000 
 26 H        5.7340     0.0210     1.9660 H.spc     1 <1>   0.0000 
@<TRIPOS>BOND
  1   1   2  1   
  2   2   3  2   
  3   3   4  1   
  4   3  19  1   
  5   4   5  1   
  6   4   6  1   
  7   4   8  1   
  8   6   7  3   
  9   8   9  1   
 10   8  11  1   
 11   8  13  1   
 12   9  10  3   
 13  11  12  3   
 14  13  14  1   
 15  13  15  1   
 16  13  19  1   
 17  15  16  1   
 18  15  17  1   
 19  15  18  1   
 20  19  20  1   
 21  19  23  1   
 22  20  21  2   
 23  20  22  2   
 24  23  24  1   
 25  23  25  1   
 26  23  26  1   
@<TRIPOS>SUBSTRUCTURE
  1 ****   8 GROUP 4 **** **** 0
