@<TRIPOS>MOLECULE
CHEM042
27 28 1 0 0 
SMALL
USER_CHARGES


@<TRIPOS>ATOM
  1 H       -6.5950    -3.3140     0.2580 H.spc     1 <1>   0.1500 
  2 C       -5.5130    -3.3020     0.1560 C.ar  1 <1>  -0.1500 
  3 C       -4.7220    -2.7820     1.1780 C.ar  1 <1>  -0.1500 
  4 H       -5.1870    -2.3880     2.0780 H.spc     1 <1>   0.1500 
  5 C       -3.3320    -2.7660     1.0480 C.ar  1 <1>  -0.1500 
  6 H       -2.7350    -2.3580     1.8610 H.spc     1 <1>   0.1500 
  7 C       -2.7140    -3.2690    -0.1070 C.ar  1 <1>  -0.1440 
  8 C       -1.2040    -3.2670    -0.2680 C.3   1 <1>   0.1440 
  9 H       -0.9790    -3.6150    -1.2880 H.spc     1 <1>   0.0000 
 10 C       -0.5120    -4.2430     0.7140 C.3   1 <1>   0.2700 
 11 H       -0.9830    -4.2100     1.7030 H.spc     1 <1>   0.0000 
 12 H       -0.6540    -5.2660     0.3430 H.spc     1 <1>   0.0000 
 13 N        0.9250    -3.9980     0.9140 N.3   1 <1>  -0.9000 
 14 H        1.4010    -4.8830     1.0850 H.spc     1 <1>   0.3600 
 15 C        1.5330    -3.2970    -0.2070 C.3   1 <1>   0.2700 
 16 H        2.6110    -3.1960    -0.0340 H.spc     1 <1>   0.0000 
 17 H        1.4200    -3.8820    -1.1280 H.spc     1 <1>   0.0000 
 18 C        0.9250    -1.9020    -0.3760 C.3   1 <1>   0.0000 
 19 H        1.1480    -1.5430    -1.3880 H.spc     1 <1>   0.0000 
 20 H        1.4040    -1.1970     0.3140 H.spc     1 <1>   0.0000 
 21 C       -0.5910    -1.8660    -0.1440 C.3   1 <1>   0.0000 
 22 H       -1.0570    -1.1680    -0.8510 H.spc     1 <1>   0.0000 
 23 H       -0.7790    -1.4560     0.8570 H.spc     1 <1>   0.0000 
 24 C       -3.5240    -3.7920    -1.1270 C.ar  1 <1>  -0.1500 
 25 H       -3.0790    -4.1910    -2.0350 H.spc     1 <1>   0.1500 
 26 C       -4.9140    -3.8070    -0.9960 C.ar  1 <1>  -0.1500 
 27 H       -5.5290    -4.2140    -1.7940 H.spc     1 <1>   0.1500 
@<TRIPOS>BOND
  1   1   2  1   
  2   2   3  ar  
  3   2  26  ar  
  4   3   4  1   
  5   3   5  ar  
  6   5   6  1   
  7   5   7  ar  
  8   7   8  1   
  9   7  24  ar  
 10   8   9  1   
 11   8  10  1   
 12   8  21  1   
 13  10  11  1   
 14  10  12  1   
 15  10  13  1   
 16  13  14  1   
 17  13  15  1   
 18  15  16  1   
 19  15  17  1   
 20  15  18  1   
 21  18  19  1   
 22  18  20  1   
 23  18  21  1   
 24  21  22  1   
 25  21  23  1   
 26  24  25  1   
 27  24  26  ar  
 28  26  27  1   
@<TRIPOS>SUBSTRUCTURE
  1 ****   7 GROUP 4 **** **** 0
