@<TRIPOS>MOLECULE
CHEM056
26 26 1 0 0 
SMALL
USER_CHARGES


@<TRIPOS>ATOM
  1 H       -1.2820    -4.3160    -1.2820 H.spc     1 <1>   0.1500 
  2 C       -1.3380    -3.3250    -0.8330 C.ar  1 <1>  -0.1500 
  3 C       -2.4720    -2.5350    -1.0270 C.ar  1 <1>  -0.1500 
  4 H       -3.2860    -2.9080    -1.6450 H.spc     1 <1>   0.1500 
  5 C       -2.5370    -1.2610    -0.4490 C.ar  1 <1>   0.0860 
  6 C       -3.7140    -0.4020    -0.6700 C.2   1 <1>   0.5440 
  7 O       -3.5570     0.6000    -1.3590 O.2   1 <1>  -0.5700 
  8 N       -4.9270    -0.7450    -0.0870 N.am  1 <1>  -0.6600 
  9 C       -6.0950     0.0820    -0.4180 C.3   1 <1>   0.5000 
 10 H       -5.9290     0.6110    -1.3630 H.spc     1 <1>   0.0000 
 11 H       -6.9520    -0.5830    -0.5750 H.spc     1 <1>   0.0000 
 12 C       -6.3930     1.0610     0.6430 C.1   1 <1>   0.3570 
 13 N       -6.6360     1.7880     1.5150 N.1   1 <1>  -0.5570 
 14 C       -5.1280    -1.8550     0.8570 C.3   1 <1>   0.5000 
 15 H       -4.1830    -2.0980     1.3510 H.spc     1 <1>   0.0000 
 16 H       -5.8110    -1.5180     1.6450 H.spc     1 <1>   0.0000 
 17 C       -5.6660    -3.0560     0.1970 C.1   1 <1>   0.3570 
 18 N       -6.0840    -3.9930    -0.3460 N.1   1 <1>  -0.5570 
 19 C       -1.4660    -0.7520     0.2910 C.ar  1 <1>  -0.1500 
 20 H       -1.5230     0.2560     0.6980 H.spc     1 <1>   0.1500 
 21 C       -0.3330    -1.5520     0.4750 C.ar  1 <1>   0.1330 
 22 N        0.7970    -1.0390     1.2580 N.pl3 1 <1>   0.9070 
 23 O        0.6280     0.0170     1.8830 O.2   1 <1>  -0.5200 
 24 O        1.8450    -1.6990     1.2560 O.2   1 <1>  -0.5200 
 25 C       -0.2660    -2.8390    -0.0790 C.ar  1 <1>  -0.1500 
 26 H        0.6130    -3.4680     0.0560 H.spc     1 <1>   0.1500 
@<TRIPOS>BOND
  1   1   2  1   
  2   2   3  ar  
  3   2  25  ar  
  4   3   4  1   
  5   3   5  ar  
  6   5   6  1   
  7   5  19  ar  
  8   6   7  2   
  9   6   8  am  
 10   8   9  1   
 11   8  14  1   
 12   9  10  1   
 13   9  11  1   
 14   9  12  1   
 15  12  13  3   
 16  14  15  1   
 17  14  16  1   
 18  14  17  1   
 19  17  18  3   
 20  19  20  1   
 21  19  21  ar  
 22  21  22  1   
 23  21  25  ar  
 24  22  23  2   
 25  22  24  2   
 26  25  26  1   
@<TRIPOS>SUBSTRUCTURE
  1 ****   5 GROUP 4 **** **** 0
