@<TRIPOS>MOLECULE
CHEM027
30 31 1 0 0 
SMALL
USER_CHARGES


@<TRIPOS>ATOM
  1 H        1.9080    -0.5350     0.1950 H.spc     1 <1>   0.1500 
  2 C        1.4440     0.4380     0.1180 C.2   1 <1>  -0.1500 
  3 C        2.0890     1.6530    -0.0290 C.2   1 <1>   0.0550 
  4 C        3.4840     2.0440    -0.1250 C.2   1 <1>   0.7150 
  5 O        3.8610     3.2060    -0.2630 O.2   1 <1>  -0.5700 
  6 N        4.3940     1.0020    -0.0510 N.am  1 <1>  -0.7300 
  7 H        4.0710     0.0530     0.0590 H.spc     1 <1>   0.3700 
  8 C        5.8100     1.2510    -0.1320 C.3   1 <1>   0.3000 
  9 H        6.3420     0.3090     0.0170 H.spc     1 <1>   0.0000 
 10 H        6.1000     1.9690     0.6410 H.spc     1 <1>   0.0000 
 11 H        6.0470     1.6610    -1.1170 H.spc     1 <1>   0.0000 
 12 O        1.1460     2.6460    -0.0890 O.3   1 <1>  -0.2800 
 13 C       -0.0900     2.0760     0.0170 C.2   1 <1>   0.0870 
 14 C       -1.2310     2.9890    -0.0300 C.ar  1 <1>   0.0530 
 15 C       -1.0500     4.3740    -0.1460 C.ar  1 <1>  -0.1500 
 16 H       -0.0480     4.7960    -0.2050 H.spc     1 <1>   0.1500 
 17 C       -2.1460     5.2380    -0.1900 C.ar  1 <1>  -0.1500 
 18 H       -1.9840     6.3090    -0.2810 H.spc     1 <1>   0.1500 
 19 C       -3.4450     4.7310    -0.1180 C.ar  1 <1>  -0.1500 
 20 H       -4.2700     5.4340    -0.1550 H.spc     1 <1>   0.1500 
 21 C       -3.6490     3.3580    -0.0020 C.ar  1 <1>   0.0820 
 22 O       -4.8620     2.7290     0.0780 O.3   1 <1>  -0.3630 
 23 C       -6.0180     3.5570     0.0420 C.3   1 <1>   0.2800 
 24 H       -6.0400     4.2420     0.8960 H.spc     1 <1>   0.0000 
 25 H       -6.0850     4.1010    -0.9060 H.spc     1 <1>   0.0000 
 26 H       -6.8960     2.9080     0.1150 H.spc     1 <1>   0.0000 
 27 C       -2.5430     2.4980     0.0420 C.ar  1 <1>  -0.1500 
 28 H       -2.7290     1.4310     0.1320 H.spc     1 <1>   0.1500 
 29 C        0.0530     0.7100     0.1460 C.2   1 <1>  -0.1500 
 30 H       -0.7480    -0.0090     0.2500 H.spc     1 <1>   0.1500 
@<TRIPOS>BOND
  1   1   2  1   
  2   2   3  2   
  3   2  29  1   
  4   3   4  1   
  5   3  12  1   
  6   4   5  2   
  7   4   6  am  
  8   6   7  1   
  9   6   8  1   
 10   8   9  1   
 11   8  10  1   
 12   8  11  1   
 13  12  13  1   
 14  13  14  1   
 15  13  29  2   
 16  14  15  ar  
 17  14  27  ar  
 18  15  16  1   
 19  15  17  ar  
 20  17  18  1   
 21  17  19  ar  
 22  19  20  1   
 23  19  21  ar  
 24  21  22  1   
 25  21  27  ar  
 26  22  23  1   
 27  23  24  1   
 28  23  25  1   
 29  23  26  1   
 30  27  28  1   
 31  29  30  1   
@<TRIPOS>SUBSTRUCTURE
  1 ****  13 GROUP 4 **** **** 0
