@<TRIPOS>MOLECULE
CHEM012
31 32 1 0 0 
SMALL
USER_CHARGES


@<TRIPOS>ATOM
  1 H       -6.2340     0.2580    -0.8830 H.spc      1 <1>   0.3700 
  2 N       -5.3190    -0.1620    -0.8040 N.am  1 <1>  -0.7300 
  3 C       -5.0170    -1.4850    -1.2010 C.2   1 <1>   0.6900 
  4 O       -5.7500    -2.2320    -1.8180 O.2   1 <1>  -0.5700 
  5 N       -3.7100    -1.7850    -0.7510 N.am  1 <1>  -0.7300 
  6 H       -3.2010    -2.6170    -1.0110 H.spc      1 <1>   0.3700 
  7 C       -3.3810    -0.7780     0.1740 C.3   1 <1>   0.6000 
  8 H       -3.8570    -1.0940     1.1180 H.spc      1 <1>   0.0000 
  9 N       -2.1510    -0.1950     0.5660 N.am  1 <1>  -0.6600 
 10 C       -0.8520    -0.8480     0.6510 C.3   1 <1>   0.3000 
 11 H       -0.1730    -0.1320     1.1300 H.spc      1 <1>   0.0000 
 12 C       -0.9240    -2.0870     1.5420 C.3   1 <1>   0.0000 
 13 H       -1.3760    -1.8420     2.5100 H.spc      1 <1>   0.0000 
 14 H       -1.5310    -2.8760     1.0840 H.spc      1 <1>   0.0000 
 15 H        0.0710    -2.4960     1.7380 H.spc      1 <1>   0.0000 
 16 C       -0.3080    -1.1470    -0.7550 C.3   1 <1>   0.0000 
 17 H       -0.9280    -1.8990    -1.2560 H.spc      1 <1>   0.0000 
 18 H       -0.3730    -0.2370    -1.3650 H.spc      1 <1>   0.0000 
 19 C        1.1380    -1.6210    -0.7560 C.3   1 <1>   0.0000 
 20 H        1.2410    -2.5960    -0.2700 H.spc      1 <1>   0.0000 
 21 H        1.4990    -1.7250    -1.7840 H.spc      1 <1>   0.0000 
 22 H        1.7870    -0.9060    -0.2400 H.spc      1 <1>   0.0000 
 23 C       -2.4610     1.1360     0.9810 C.2   1 <1>   0.6900 
 24 O       -1.7370     1.8880     1.6080 O.2   1 <1>  -0.5700 
 25 N       -3.7750     1.4180     0.5170 N.am  1 <1>  -0.6600 
 26 C       -4.5830     2.5650     0.8240 C.3   1 <1>   0.3000 
 27 H       -4.0960     3.1750     1.5880 H.spc      1 <1>   0.0000 
 28 H       -4.7150     3.1570    -0.0860 H.spc      1 <1>   0.0000 
 29 H       -5.5570     2.2270     1.1880 H.spc      1 <1>   0.0000 
 30 C       -4.0940     0.4130    -0.4220 C.3   1 <1>   0.6000 
 31 H       -3.6170     0.7340    -1.3640 H.spc      1 <1>   0.0000 
@<TRIPOS>BOND
  1   1   2  1   
  2   2   3  am  
  3   2  30  1   
  4   3   4  2   
  5   3   5  am  
  6   5   6  1   
  7   5   7  1   
  8   7   8  1   
  9   7   9  1   
 10   7  30  1   
 11   9  10  1   
 12   9  23  am  
 13  10  11  1   
 14  10  12  1   
 15  10  16  1   
 16  12  13  1   
 17  12  14  1   
 18  12  15  1   
 19  16  17  1   
 20  16  18  1   
 21  16  19  1   
 22  19  20  1   
 23  19  21  1   
 24  19  22  1   
 25  23  24  2   
 26  23  25  am  
 27  25  26  1   
 28  25  30  1   
 29  26  27  1   
 30  26  28  1   
 31  26  29  1   
 32  30  31  1   
@<TRIPOS>SUBSTRUCTURE
  1 ****   7 GROUP 4 **** **** 0
