@<TRIPOS>MOLECULE
CHEM076
25 26 1 0 0 
SMALL
USER_CHARGES


@<TRIPOS>ATOM
  1 H       -0.0080    -1.9900    -1.4660 H.spc     1 <1>   0.1500 
  2 C       -0.1770    -1.1460    -0.8000 C.ar  1 <1>  -0.1500 
  3 C       -1.4090    -0.4860    -0.8290 C.ar  1 <1>  -0.1500 
  4 H       -2.1770    -0.8150    -1.5240 H.spc     1 <1>   0.1500 
  5 C       -1.6370     0.5950     0.0260 C.ar  1 <1>   0.0820 
  6 O       -2.8120     1.3120     0.0180 O.3   1 <1>  -0.1650 
  7 C       -3.9870     0.5980     0.0640 C.ar  1 <1>   0.0820 
  8 C       -4.9930     0.9760    -0.8250 C.ar  1 <1>  -0.1500 
  9 H       -4.8180     1.7820    -1.5340 H.spc     1 <1>   0.1500 
 10 C       -6.2240     0.3160    -0.8060 C.ar  1 <1>  -0.1500 
 11 H       -7.0000     0.6130    -1.5090 H.spc     1 <1>   0.1500 
 12 C       -6.4540    -0.7130     0.1150 C.ar  1 <1>   0.0730 
 13 C       -7.7170    -1.3900     0.1350 C.1   1 <1>   0.4840 
 14 N       -8.7400    -1.9390     0.1510 N.1   1 <1>  -0.5570 
 15 C       -5.4490    -1.0740     1.0200 C.ar  1 <1>  -0.1500 
 16 H       -5.6200    -1.8640     1.7500 H.spc     1 <1>   0.1500 
 17 C       -4.2170    -0.4140     1.0010 C.ar  1 <1>  -0.1500 
 18 H       -3.4510    -0.6860     1.7210 H.spc     1 <1>   0.1500 
 19 C       -0.6290     1.0420     0.8810 C.ar  1 <1>  -0.1500 
 20 H       -0.8030     1.9000     1.5250 H.spc     1 <1>   0.1500 
 21 C        0.6020     0.3820     0.9100 C.ar  1 <1>  -0.1500 
 22 H        1.3800     0.7330     1.5860 H.spc     1 <1>   0.1500 
 23 C        0.8300    -0.7150     0.0710 C.ar  1 <1>   0.0730 
 24 C        2.0950    -1.3900     0.0990 C.1   1 <1>   0.4840 
 25 N        3.1190    -1.9370     0.1220 N.1   1 <1>  -0.5570 
@<TRIPOS>BOND
  1   1   2  1   
  2   2   3  ar  
  3   2  23  ar  
  4   3   4  1   
  5   3   5  ar  
  6   5   6  1   
  7   5  19  ar  
  8   6   7  1   
  9   7   8  ar  
 10   7  17  ar  
 11   8   9  1   
 12   8  10  ar  
 13  10  11  1   
 14  10  12  ar  
 15  12  13  1   
 16  12  15  ar  
 17  13  14  3   
 18  15  16  1   
 19  15  17  ar  
 20  17  18  1   
 21  19  20  1   
 22  19  21  ar  
 23  21  22  1   
 24  21  23  ar  
 25  23  24  1   
 26  24  25  3   
@<TRIPOS>SUBSTRUCTURE
  1 ****   5 GROUP 4 **** **** 0
