@<TRIPOS>MOLECULE
CHEM141
28 29 1 0 0 
SMALL
USER_CHARGES


@<TRIPOS>ATOM
  1 H       -0.1160     4.9280     0.2930 H.spc     1 <1>   0.1500 
  2 C       -0.4420     3.9050     0.1150 C.ar  1 <1>  -0.1500 
  3 C       -1.7790     3.5610     0.3390 C.ar  1 <1>  -0.1500 
  4 H       -2.4640     4.3300     0.6880 H.spc     1 <1>   0.1500 
  5 C       -2.2280     2.2530     0.1170 C.ar  1 <1>   0.1170 
  6 N       -3.5850     1.9900     0.3660 N.am  1 <1>  -0.5470 
  7 H       -4.1660     2.7600     0.6930 H.spc     1 <1>   0.3700 
  8 C       -4.2720     0.7970     0.2150 C.2   1 <1>   0.5690 
  9 O       -3.8180    -0.2670    -0.1900 O.2   1 <1>  -0.5700 
 10 C       -5.7340     0.9340     0.6740 C.3   1 <1>   0.3410 
 11 H       -5.7940     0.5650     1.7040 H.spc     1 <1>   0.0000 
 12 O       -6.1640     2.3120     0.6930 O.3   1 <1>  -0.5600 
 13 C       -7.3870     2.4110    -0.0500 C.3   1 <1>   0.2800 
 14 H       -7.1460     2.8020    -1.0440 H.spc     1 <1>   0.0000 
 15 H       -8.0640     3.1110     0.4470 H.spc     1 <1>   0.0000 
 16 C       -7.9500     1.0120    -0.1310 C.3   1 <1>   0.0000 
 17 H       -8.6360     0.8740    -0.9700 H.spc     1 <1>   0.0000 
 18 H       -8.4830     0.7680     0.7960 H.spc     1 <1>   0.0000 
 19 C       -6.6970     0.1800    -0.2300 C.3   1 <1>   0.0000 
 20 H       -6.8430    -0.8580     0.0840 H.spc     1 <1>   0.0000 
 21 H       -6.3380     0.1670    -1.2660 H.spc     1 <1>   0.0000 
 22 C       -1.3190     1.2930    -0.3310 C.ar  1 <1>  -0.1500 
 23 H       -1.6200     0.2660    -0.5160 H.spc     1 <1>   0.1500 
 24 C        0.0210     1.6330    -0.5560 C.ar  1 <1>  -0.1500 
 25 H        0.7100     0.8660    -0.9060 H.spc     1 <1>   0.1500 
 26 C        0.4630     2.9400    -0.3340 C.ar  1 <1>   0.0730 
 27 C        1.8340     3.2870    -0.5650 C.1   1 <1>   0.4840 
 28 N        2.9430     3.5730    -0.7510 N.1   1 <1>  -0.5570 
@<TRIPOS>BOND
  1   1   2  1   
  2   2   3  ar  
  3   2  26  ar  
  4   3   4  1   
  5   3   5  ar  
  6   5   6  1   
  7   5  22  ar  
  8   6   7  1   
  9   6   8  am  
 10   8   9  2   
 11   8  10  1   
 12  10  11  1   
 13  10  12  1   
 14  10  19  1   
 15  12  13  1   
 16  13  14  1   
 17  13  15  1   
 18  13  16  1   
 19  16  17  1   
 20  16  18  1   
 21  16  19  1   
 22  19  20  1   
 23  19  21  1   
 24  22  23  1   
 25  22  24  ar  
 26  24  25  1   
 27  24  26  ar  
 28  26  27  1   
 29  27  28  3   
@<TRIPOS>SUBSTRUCTURE
  1 ****   5 GROUP 4 **** **** 0
