@<TRIPOS>MOLECULE
CHEM069
29 30 1 0 0 
SMALL
USER_CHARGES


@<TRIPOS>ATOM
  1 H       -3.7380     3.9260    -0.2670 H.spc     1 <1>   0.1500 
  2 C       -2.6800     3.7770    -0.0630 C.ar  1 <1>  -0.1500 
  3 C       -2.1820     2.4950     0.1520 C.ar  1 <1>  -0.1500 
  4 H       -2.8480     1.6370     0.1160 H.spc     1 <1>   0.1500 
  5 C       -0.8250     2.3150     0.4220 C.ar  1 <1>  -0.1500 
  6 H       -0.4470     1.3100     0.5940 H.spc     1 <1>   0.1500 
  7 C        0.0390     3.4160     0.4670 C.ar  1 <1>   0.1020 
  8 C       -0.4560     4.7120     0.2550 C.ar  1 <1>   0.1790 
  9 C       -1.8210     4.8760    -0.0060 C.ar  1 <1>  -0.1500 
 10 H       -2.2170     5.8770    -0.1580 H.spc     1 <1>   0.1500 
 11 N        0.3230     5.8800     0.3360 N.2   1 <1>  -0.6290 
 12 C        1.6180     5.8370     0.2150 C.2   1 <1>   0.3280 
 13 C        2.3330     7.1700     0.2840 C.3   1 <1>   0.0610 
 14 H        2.8400     7.2660     1.2470 H.spc     1 <1>   0.0000 
 15 H        3.0590     7.2480    -0.5300 H.spc     1 <1>   0.0000 
 16 H        1.6170     7.9910     0.1880 H.spc     1 <1>   0.0000 
 17 C        2.4250     4.5860    -0.0900 C.3   1 <1>   0.3520 
 18 H        2.3140     4.4120    -1.1680 H.spc     1 <1>   0.0000 
 19 C        3.9030     4.6740     0.2310 C.2   1 <1>   0.6590 
 20 O        4.3870     5.2430     1.2000 O.2   1 <1>  -0.5700 
 21 O        4.6290     4.0050    -0.7150 O.3   1 <1>  -0.4300 
 22 C        6.0490     3.9680    -0.5070 C.3   1 <1>   0.2800 
 23 H        6.5120     3.8180    -1.4870 H.spc     1 <1>   0.0000 
 24 H        6.4180     4.9250    -0.1210 H.spc     1 <1>   0.0000 
 25 C        6.4140     2.8180     0.4120 C.3   1 <1>   0.0000 
 26 H        6.0390     1.8710     0.0100 H.spc     1 <1>   0.0000 
 27 H        7.4980     2.7460     0.5320 H.spc     1 <1>   0.0000 
 28 H        5.9610     2.9440     1.4010 H.spc     1 <1>   0.0000 
 29 S        1.7620     3.1440     0.8130 S.3   1 <1>  -0.3320 
@<TRIPOS>BOND
  1   1   2  1   
  2   2   3  ar  
  3   2   9  ar  
  4   3   4  1   
  5   3   5  ar  
  6   5   6  1   
  7   5   7  ar  
  8   7   8  ar  
  9   7  29  1   
 10   8   9  ar  
 11   8  11  1   
 12   9  10  1   
 13  11  12  2   
 14  12  13  1   
 15  12  17  1   
 16  13  14  1   
 17  13  15  1   
 18  13  16  1   
 19  17  18  1   
 20  17  19  1   
 21  17  29  1   
 22  19  20  2   
 23  19  21  1   
 24  21  22  1   
 25  22  23  1   
 26  22  24  1   
 27  22  25  1   
 28  25  26  1   
 29  25  27  1   
 30  25  28  1   
@<TRIPOS>SUBSTRUCTURE
  1 ****  17 GROUP 4 **** **** 0
