@<TRIPOS>MOLECULE
CHEM062
25 26 1 0 0 
SMALL
USER_CHARGES


@<TRIPOS>ATOM
  1 H       -0.0840    -3.3990    -0.5020 H.spc     1 <1>   0.4000 
  2 N        0.8220    -3.6360    -0.0800 N.2   1 <1>  -0.8500 
  3 C        1.5520    -2.5970    -0.2900 C.2   1 <1>   0.7110 
  4 N        0.9370    -1.5840    -0.9540 N.2   1 <1>  -0.6610 
  5 C        1.6840    -0.5460    -1.1550 C.2   1 <1>   0.6580 
  6 F        1.1310     0.4920    -1.8050 F     1 <1>  -0.2220 
  7 C        3.1020    -0.3990    -0.7360 C.2   1 <1>  -0.1360 
  8 H        3.5990     0.5170    -1.0090 H.spc     1 <1>   0.1500 
  9 C        3.6630    -1.4390    -0.0880 C.2   1 <1>   0.2000 
 10 N        4.9900    -1.4370     0.3390 N.pl3 1 <1>  -0.8380 
 11 C        5.7900    -0.2220     0.6170 C.3   1 <1>   0.3690 
 12 H        5.2510     0.7020     0.3900 H.spc     1 <1>   0.0000 
 13 H        6.0110    -0.2060     1.6910 H.spc     1 <1>   0.0000 
 14 C        7.1050    -0.2620    -0.1730 C.3   1 <1>   0.2800 
 15 H        6.9190    -0.2290    -1.2530 H.spc     1 <1>   0.0000 
 16 H        7.7220     0.6040     0.0890 H.spc     1 <1>   0.0000 
 17 O        7.8600    -1.4420     0.1380 O.3   1 <1>  -0.5600 
 18 C        7.1010    -2.6180    -0.1830 C.3   1 <1>   0.2800 
 19 H        6.9240    -2.6410    -1.2650 H.spc     1 <1>   0.0000 
 20 H        7.7130    -3.4880     0.0740 H.spc     1 <1>   0.0000 
 21 C        5.7740    -2.6670     0.5920 C.3   1 <1>   0.3690 
 22 H        5.2340    -3.5710     0.2920 H.spc     1 <1>   0.0000 
 23 H        5.9720    -2.7340     1.6680 H.spc     1 <1>   0.0000 
 24 N        2.8380    -2.5160     0.1260 N.pl3 1 <1>  -0.5500 
 25 H        3.1910    -3.3050     0.6410 H.spc     1 <1>   0.4000 
@<TRIPOS>BOND
  1   1   2  1   
  2   2   3  2   
  3   3   4  1   
  4   3  24  1   
  5   4   5  2   
  6   5   6  1   
  7   5   7  1   
  8   7   8  1   
  9   7   9  2   
 10   9  10  1   
 11   9  24  1   
 12  10  11  1   
 13  10  21  1   
 14  11  12  1   
 15  11  13  1   
 16  11  14  1   
 17  14  15  1   
 18  14  16  1   
 19  14  17  1   
 20  17  18  1   
 21  18  19  1   
 22  18  20  1   
 23  18  21  1   
 24  21  22  1   
 25  21  23  1   
 26  24  25  1   
@<TRIPOS>SUBSTRUCTURE
  1 ****   9 GROUP 4 **** **** 0
