@<TRIPOS>MOLECULE
CHEM077
24 24 1 0 0 
SMALL
USER_CHARGES


@<TRIPOS>ATOM
  1 H       -0.4880    -0.7110    -0.4560 H.spc     1 <1>   0.4000 
  2 O        0.3090    -1.2200    -0.6810 O.3   1 <1>  -0.6800 
  3 C        1.4200    -0.5930    -0.0400 C.3   1 <1>   0.2800 
  4 H        1.2560    -0.6640     1.0420 H.spc     1 <1>   0.0000 
  5 C        1.4750     0.8740    -0.4530 C.3   1 <1>   0.0000 
  6 H        1.4640     0.9530    -1.5480 H.spc     1 <1>   0.0000 
  7 H        0.5710     1.3930    -0.1090 H.spc     1 <1>   0.0000 
  8 C        2.7130     1.5500     0.1150 C.3   1 <1>   0.2700 
  9 H        2.6560     1.5990     1.2090 H.spc     1 <1>   0.0000 
 10 H        2.7570     2.5820    -0.2500 H.spc     1 <1>   0.0000 
 11 N        3.9260     0.8510    -0.2970 N.3   1 <1>  -0.9000 
 12 H        4.7410     1.3380     0.0760 H.spc     1 <1>   0.3600 
 13 C        3.9400    -0.5520     0.1480 C.3   1 <1>   0.2700 
 14 H        3.9080    -0.5730     1.2460 H.spc     1 <1>   0.0000 
 15 C        5.2740    -1.1620    -0.2920 C.3   1 <1>   0.0000 
 16 H        5.4090    -2.1650     0.1250 H.spc     1 <1>   0.0000 
 17 H        5.3420    -1.2320    -1.3830 H.spc     1 <1>   0.0000 
 18 H        6.1190    -0.5590     0.0620 H.spc     1 <1>   0.0000 
 19 C        2.7220    -1.3220    -0.4170 C.3   1 <1>   0.0000 
 20 H        2.7910    -1.3590    -1.5140 H.spc     1 <1>   0.0000 
 21 C        2.6780    -2.7760     0.0730 C.3   1 <1>   0.0000 
 22 H        1.7850    -3.2920    -0.2950 H.spc     1 <1>   0.0000 
 23 H        2.6690    -2.8230     1.1670 H.spc     1 <1>   0.0000 
 24 H        3.5410    -3.3440    -0.2870 H.spc     1 <1>   0.0000 
@<TRIPOS>BOND
  1   1   2  1   
  2   2   3  1   
  3   3   4  1   
  4   3   5  1   
  5   3  19  1   
  6   5   6  1   
  7   5   7  1   
  8   5   8  1   
  9   8   9  1   
 10   8  10  1   
 11   8  11  1   
 12  11  12  1   
 13  11  13  1   
 14  13  14  1   
 15  13  15  1   
 16  13  19  1   
 17  15  16  1   
 18  15  17  1   
 19  15  18  1   
 20  19  20  1   
 21  19  21  1   
 22  21  22  1   
 23  21  23  1   
 24  21  24  1   
@<TRIPOS>SUBSTRUCTURE
  1 ****  19 GROUP 4 **** **** 0
