@<TRIPOS>MOLECULE
CHEM169
41 44 1 0 0 
SMALL
USER_CHARGES


@<TRIPOS>ATOM
  1 H        3.4960    -0.3800     2.5940 H.spc     1 <1>   0.1500 
  2 C        3.8160    -0.3990     1.5530 C.ar  1 <1>  -0.1500 
  3 C        5.1050    -0.8370     1.2440 C.ar  1 <1>  -0.1500 
  4 H        5.7660    -1.1530     2.0480 H.spc     1 <1>   0.1500 
  5 C        5.5440    -0.8640    -0.0840 C.ar  1 <1>  -0.1440 
  6 C        6.9420    -1.3160    -0.4190 C.3   1 <1>   0.1440 
  7 H        6.9520    -1.7840    -1.4110 H.spc     1 <1>   0.0000 
  8 H        7.2560    -2.0950     0.2870 H.spc     1 <1>   0.0000 
  9 C        7.9330    -0.1620    -0.3850 C.3   1 <1>   0.0000 
 10 H        7.9710     0.3000     0.6070 H.spc     1 <1>   0.0000 
 11 H        8.9380    -0.5200    -0.6300 H.spc     1 <1>   0.0000 
 12 H        7.6640     0.6150    -1.1080 H.spc     1 <1>   0.0000 
 13 C        4.6780    -0.4280    -1.0950 C.ar  1 <1>  -0.1500 
 14 H        5.0100    -0.4200    -2.1320 H.spc     1 <1>   0.1500 
 15 C        3.3860     0.0110    -0.7870 C.ar  1 <1>  -0.1500 
 16 H        2.7640     0.3600    -1.6030 H.spc     1 <1>   0.1500 
 17 C        2.9440     0.0140     0.5370 C.ar  1 <1>   0.0860 
 18 C        1.5860     0.4660     0.9380 C.2   1 <1>   0.4230 
 19 O        1.4490     1.0260     2.0260 O.2   1 <1>  -0.5700 
 20 C        0.3910     0.2130     0.0540 C.3   1 <1>   0.0610 
 21 C       -1.2340     0.5430     0.9960 C.3   1 <1>   0.2700 
 22 H       -1.3190     1.6150     1.2280 H.spc     1 <1>   0.0000 
 23 H       -1.3070    -0.0340     1.9290 H.spc     1 <1>   0.0000 
 24 N       -2.6860     0.1390    -0.0450 N.3   1 <1>  -0.8100 
 25 C       -2.5310    -1.3260    -1.1420 C.3   1 <1>   0.5400 
 26 H       -3.2660    -2.0360    -0.7230 H.spc     1 <1>   0.0000 
 27 H       -2.8710    -1.0790    -2.1600 H.spc     1 <1>   0.0000 
 28 N       -1.0550    -2.0230    -1.1640 N.3   1 <1>  -0.8100 
 29 C       -1.0920    -1.3000    -0.0290 C.3   1 <1>   0.5400 
 30 H       -1.9220    -1.5710     0.6980 H.spc     1 <1>   0.0000 
 31 H       -0.2910    -1.5330     0.7410 H.spc     1 <1>   0.0000 
 32 N       -1.0490     0.2570    -1.1620 N.3   1 <1>  -0.8100 
 33 C       -2.2720     0.9920    -1.0810 C.3   1 <1>   0.5400 
 34 H       -2.8820     0.9660    -1.9910 H.spc     1 <1>   0.0000 
 35 H       -2.2180     2.0430    -0.7750 H.spc     1 <1>   0.0000 
 36 C        0.0940     1.1370    -1.0010 C.3   1 <1>   0.2700 
 37 H        0.7530     1.1390    -1.8700 H.spc     1 <1>   0.0000 
 38 H       -0.0830     2.1650    -0.6690 H.spc     1 <1>   0.0000 
 39 C        0.4290    -1.3300    -1.0620 C.3   1 <1>   0.2700 
 40 H        1.1330    -2.0590    -0.6230 H.spc     1 <1>   0.0000 
 41 H        0.7820    -1.0830    -2.0740 H.spc     1 <1>   0.0000 
@<TRIPOS>BOND
  1   1   2  1   
  2   2   3  ar  
  3   2  17  ar  
  4   3   4  1   
  5   3   5  ar  
  6   5   6  1   
  7   5  13  ar  
  8   6   7  1   
  9   6   8  1   
 10   6   9  1   
 11   9  10  1   
 12   9  11  1   
 13   9  12  1   
 14  13  14  1   
 15  13  15  ar  
 16  15  16  1   
 17  15  17  ar  
 18  17  18  1   
 19  18  19  2   
 20  18  20  1   
 21  20  21  1   
 22  20  36  1   
 23  20  39  1   
 24  21  22  1   
 25  21  23  1   
 26  21  24  1   
 27  24  25  1   
 28  24  33  1   
 29  25  26  1   
 30  25  27  1   
 31  25  28  1   
 32  28  29  1   
 33  28  39  1   
 34  29  30  1   
 35  29  31  1   
 36  29  32  1   
 37  32  33  1   
 38  32  36  1   
 39  33  34  1   
 40  33  35  1   
 41  36  37  1   
 42  36  38  1   
 43  39  40  1   
 44  39  41  1   
@<TRIPOS>SUBSTRUCTURE
  1 ****  18 GROUP 4 **** **** 0
