@<TRIPOS>MOLECULE
CHEM131
19 20 1 0 0 
SMALL
USER_CHARGES


@<TRIPOS>ATOM
  1 H       -7.6940     2.4050     0.2780 H.spc     1 <1>   0.1500 
  2 C       -6.6230     2.5090     0.1690 C.2   1 <1>  -0.0100 
  3 O       -5.9150     1.3760     0.4560 O.3   1 <1>  -0.3090 
  4 C       -4.6200     1.7280     0.2560 C.2   1 <1>   0.1820 
  5 C       -3.3550     1.1260     0.3430 C.2   1 <1>  -0.1630 
  6 H       -3.1390     0.1080     0.6310 H.spc     1 <1>   0.1500 
  7 C       -2.4680     2.1370    -0.0240 C.2   1 <1>  -0.2370 
  8 C       -1.0210     2.1460    -0.1340 C.2   1 <1>   0.7150 
  9 O       -0.3930     3.1470    -0.4790 O.2   1 <1>  -0.5700 
 10 N       -0.3850     0.9490     0.1770 N.am  1 <1>  -0.4210 
 11 H       -0.9180     0.1350     0.4660 H.spc     1 <1>   0.3700 
 12 N        1.0230     0.8480     0.0960 N.3   1 <1>  -0.7290 
 13 H        1.2820     1.0210    -0.8820 H.spc     1 <1>   0.3600 
 14 H        1.4090     1.6660     0.5850 H.spc     1 <1>   0.3600 
 15 N       -3.2010     3.2850    -0.3120 N.pl3 1 <1>  -0.0540 
 16 H       -2.8230     4.1780    -0.6060 H.spc     1 <1>   0.2700 
 17 C       -4.5270     3.0130    -0.1350 C.2   1 <1>  -0.0510 
 18 C       -5.8210     3.5660    -0.2050 C.2   1 <1>  -0.1630 
 19 H       -6.1320     4.5620    -0.4810 H.spc     1 <1>   0.1500 
@<TRIPOS>BOND
  1   1   2  1   
  2   2   3  1   
  3   2  18  2   
  4   3   4  1   
  5   4   5  1   
  6   4  17  2   
  7   5   6  1   
  8   5   7  2   
  9   7   8  1   
 10   7  15  1   
 11   8   9  2   
 12   8  10  am  
 13  10  11  1   
 14  10  12  1   
 15  12  13  1   
 16  12  14  1   
 17  15  16  1   
 18  15  17  1   
 19  17  18  1   
 20  18  19  1   
@<TRIPOS>SUBSTRUCTURE
  1 ****   7 GROUP 4 **** **** 0
