@<TRIPOS>MOLECULE
CHEM039
19 19 1 0 0 
SMALL
USER_CHARGES


@<TRIPOS>ATOM
  1 H       -3.7300     3.4650     0.3580 H.spc     1 <1>   0.1500 
  2 C       -2.8060     2.9270     0.1750 C.ar  1 <1>  -0.1500 
  3 C       -2.7620     1.5350     0.1990 C.ar  1 <1>   0.3960 
  4 C       -4.0050     0.7450     0.4620 C.2   1 <1>   0.5440 
  5 O       -4.0140    -0.2590     1.1640 O.2   1 <1>  -0.5700 
  6 N       -5.1650     1.1930    -0.1220 N.am  1 <1>  -0.8000 
  7 H       -5.2210     1.9880    -0.7420 H.spc     1 <1>   0.3700 
  8 H       -6.0080     0.6700     0.0760 H.spc     1 <1>   0.3700 
  9 N       -1.6280     0.8200     0.0110 N.ar  1 <1>  -0.6200 
 10 C       -0.4920     1.5220    -0.2140 C.ar  1 <1>   0.3960 
 11 C        0.7490     0.7160    -0.4370 C.2   1 <1>   0.5440 
 12 O        0.7550    -0.3220    -1.0870 O.2   1 <1>  -0.5700 
 13 N        1.9110     1.1910     0.1210 N.am  1 <1>  -0.8000 
 14 H        2.7530     0.6560    -0.0500 H.spc     1 <1>   0.3700 
 15 H        1.9700     2.0170     0.6980 H.spc     1 <1>   0.3700 
 16 C       -0.4440     2.9130    -0.2610 C.ar  1 <1>  -0.1500 
 17 H        0.4800     3.4390    -0.4720 H.spc     1 <1>   0.1500 
 18 C       -1.6250     3.6240    -0.0610 C.ar  1 <1>  -0.1500 
 19 H       -1.6230     4.7110    -0.0890 H.spc     1 <1>   0.1500 
@<TRIPOS>BOND
  1   1   2  1   
  2   2   3  ar  
  3   2  18  ar  
  4   3   4  1   
  5   3   9  ar  
  6   4   5  2   
  7   4   6  am  
  8   6   7  1   
  9   6   8  1   
 10   9  10  ar  
 11  10  11  1   
 12  10  16  ar  
 13  11  12  2   
 14  11  13  am  
 15  13  14  1   
 16  13  15  1   
 17  16  17  1   
 18  16  18  ar  
 19  18  19  1   
@<TRIPOS>SUBSTRUCTURE
  1 ****   9 GROUP 4 **** **** 0
