@<TRIPOS>MOLECULE
CHEM009
22 22 1 0 0 
SMALL
USER_CHARGES


@<TRIPOS>ATOM
  1 H        4.4820     2.7780    -0.7120 H.spc      1 <1>   0.0000 
  2 C        4.1000     2.4390     0.2560 C.3   1 <1>   0.1380 
  3 H        4.9550     2.2520     0.9140 H.spc      1 <1>   0.0000 
  4 H        3.5420     3.2580     0.7180 H.spc      1 <1>   0.0000 
  5 C        3.2730     1.1910     0.0770 C.2   1 <1>  -0.1550 
  6 C        1.9220     1.1920     0.0220 C.2   1 <1>  -0.1550 
  7 C        1.0910     2.4510     0.0300 C.3   1 <1>   0.1380 
  8 H        0.2400     2.3650    -0.6550 H.spc      1 <1>   0.0000 
  9 H        1.6480     3.3330    -0.2970 H.spc      1 <1>   0.0000 
 10 H        0.7010     2.6370     1.0360 H.spc      1 <1>   0.0000 
 11 S        0.9450    -0.2430    -0.1810 S.o2  1 <1>   1.2120 
 12 O        0.6330    -0.3550    -1.5930 O.2   1 <1>  -0.6500 
 13 O       -0.1170    -0.2140     0.8050 O.2   1 <1>  -0.6500 
 14 C        1.9630    -1.6240     0.2150 C.3   1 <1>   0.1050 
 15 H        2.1200    -1.6350     1.2970 H.spc      1 <1>   0.0000 
 16 H        1.3960    -2.5200    -0.0560 H.spc      1 <1>   0.0000 
 17 C        3.2410    -1.5530    -0.5660 C.3   1 <1>   0.1050 
 18 H        3.8120    -2.4810    -0.4540 H.spc      1 <1>   0.0000 
 19 H        3.0840    -1.3770    -1.6350 H.spc      1 <1>   0.0000 
 20 S        4.2510    -0.2570     0.0650 S.o2  1 <1>   1.2120 
 21 O        5.3290    -0.0720    -0.8860 O.2   1 <1>  -0.6500 
 22 O        4.5410    -0.5940     1.4450 O.2   1 <1>  -0.6500 
@<TRIPOS>BOND
  1   1   2  1   
  2   2   3  1   
  3   2   4  1   
  4   2   5  1   
  5   5   6  2   
  6   5  20  1   
  7   6   7  1   
  8   6  11  1   
  9   7   8  1   
 10   7   9  1   
 11   7  10  1   
 12  11  12  2   
 13  11  13  2   
 14  11  14  1   
 15  14  15  1   
 16  14  16  1   
 17  14  17  1   
 18  17  18  1   
 19  17  19  1   
 20  17  20  1   
 21  20  21  2   
 22  20  22  2   
@<TRIPOS>SUBSTRUCTURE
  1 ****   6 GROUP 4 **** **** 0
