@<TRIPOS>MOLECULE
CHEM036
31 32 1 0 0 
SMALL
USER_CHARGES


@<TRIPOS>ATOM
  1 H       -0.4780    -1.7940     1.7570 H.spc     1 <1>   0.4000 
  2 O        0.0390    -2.5720     1.4900 O.3   1 <1>  -0.6800 
  3 C        0.8270    -2.0830     0.4240 C.3   1 <1>   0.7410 
  4 H        0.1740    -1.8610    -0.4260 H.spc     1 <1>   0.0000 
  5 O        1.4060    -0.8680     0.8730 O.3   1 <1>  -0.6800 
  6 H        2.3440    -1.1000     1.0250 H.spc     1 <1>   0.4000 
  7 C        1.8780    -3.0770     0.0180 C.2   1 <1>   0.0460 
  8 N        3.2210    -2.7140     0.1340 N.2   1 <1>  -0.5650 
  9 C        4.0110    -3.7010    -0.2530 C.2   1 <1>   0.3250 
 10 C        5.4870    -3.6170    -0.2570 C.ar  1 <1>   0.0530 
 11 C        6.3270    -4.7200    -0.4700 C.ar  1 <1>  -0.1500 
 12 H        5.9240    -5.7130    -0.6480 H.spc     1 <1>   0.1500 
 13 C        7.7220    -4.5810    -0.4560 C.ar  1 <1>  -0.1500 
 14 H        8.3380    -5.4620    -0.6320 H.spc     1 <1>   0.1500 
 15 C        8.3240    -3.3370    -0.2250 C.ar  1 <1>  -0.1440 
 16 C        9.8290    -3.1530    -0.1850 C.3   1 <1>   0.7040 
 17 H       10.0830    -2.6810     0.7740 H.spc     1 <1>   0.0000 
 18 O       10.1920    -2.2950    -1.2530 O.3   1 <1>  -0.6800 
 19 H       11.0190    -1.8680    -0.9900 H.spc     1 <1>   0.4000 
 20 O       10.5010    -4.4010    -0.3080 O.3   1 <1>  -0.5600 
 21 C       11.8560    -4.3400     0.1030 C.3   1 <1>   0.2800 
 22 H       12.2950    -5.3350    -0.0110 H.spc     1 <1>   0.0000 
 23 H       11.9280    -4.0480     1.1550 H.spc     1 <1>   0.0000 
 24 H       12.4210    -3.6410    -0.5210 H.spc     1 <1>   0.0000 
 25 C        7.4870    -2.2320    -0.0160 C.ar  1 <1>  -0.1500 
 26 H        7.9180    -1.2460     0.1510 H.spc     1 <1>   0.1500 
 27 C        6.0950    -2.3710    -0.0290 C.ar  1 <1>  -0.1500 
 28 H        5.4800    -1.4870     0.1350 H.spc     1 <1>   0.1500 
 29 S        3.1680    -5.1110    -0.7840 S.3   1 <1>  -0.0800 
 30 C        1.6700    -4.3530    -0.4610 C.2   1 <1>  -0.1100 
 31 H        0.7300    -4.8620    -0.6230 H.spc     1 <1>   0.1500 
@<TRIPOS>BOND
  1   1   2  1   
  2   2   3  1   
  3   3   4  1   
  4   3   5  1   
  5   3   7  1   
  6   5   6  1   
  7   7   8  1   
  8   7  30  2   
  9   8   9  2   
 10   9  10  1   
 11   9  29  1   
 12  10  11  ar  
 13  10  27  ar  
 14  11  12  1   
 15  11  13  ar  
 16  13  14  1   
 17  13  15  ar  
 18  15  16  1   
 19  15  25  ar  
 20  16  17  1   
 21  16  18  1   
 22  16  20  1   
 23  18  19  1   
 24  20  21  1   
 25  21  22  1   
 26  21  23  1   
 27  21  24  1   
 28  25  26  1   
 29  25  27  ar  
 30  27  28  1   
 31  29  30  1   
 32  30  31  1   
@<TRIPOS>SUBSTRUCTURE
  1 ****  10 GROUP 4 **** **** 0
