@<TRIPOS>MOLECULE
CHEM147
45 46 1 0 0 
SMALL
USER_CHARGES


@<TRIPOS>ATOM
  1 H        0.4000    -3.0870    -1.2260 H.spc     1 <1>   0.1500 
  2 C       -0.1390    -2.2460    -0.7920 C.2   1 <1>  -0.0410 
  3 C       -1.4700    -2.3010    -0.6520 C.2   1 <1>  -0.2880 
  4 H       -1.9890    -3.2000    -0.9740 H.spc     1 <1>   0.1500 
  5 C       -2.2780    -1.1630    -0.0890 C.3   1 <1>   0.1990 
  6 H       -2.4670    -1.3590     0.9740 H.spc     1 <1>   0.0000 
  7 C       -3.6310    -1.0840    -0.8070 C.2   1 <1>   0.5690 
  8 O       -3.8890    -0.2690    -1.6870 O.2   1 <1>  -0.5700 
  9 N       -4.5420    -2.0280    -0.3690 N.am  1 <1>  -0.7300 
 10 H       -4.2770    -2.6640     0.3720 H.spc     1 <1>   0.3700 
 11 C       -5.8770    -2.1250    -0.9390 C.3   1 <1>   0.3000 
 12 H       -5.8040    -1.9610    -2.0190 H.spc     1 <1>   0.0000 
 13 C       -6.8420    -1.1360    -0.2910 C.3   1 <1>   0.0000 
 14 H       -7.7250    -1.0100    -0.9300 H.spc     1 <1>   0.0000 
 15 H       -6.4080    -0.1460    -0.1190 H.spc     1 <1>   0.0000 
 16 C       -7.2590    -1.8070     1.0150 C.3   1 <1>   0.0000 
 17 H       -6.6070    -1.4830     1.8340 H.spc     1 <1>   0.0000 
 18 H       -8.2850    -1.5460     1.2900 H.spc     1 <1>   0.0000 
 19 C       -7.0940    -3.3100     0.7870 C.3   1 <1>   0.0000 
 20 H       -6.4050    -3.7260     1.5310 H.spc     1 <1>   0.0000 
 21 H       -8.0450    -3.8420     0.8900 H.spc     1 <1>   0.0000 
 22 C       -6.5240    -3.4700    -0.6210 C.3   1 <1>   0.0000 
 23 H       -5.8280    -4.3120    -0.6870 H.spc     1 <1>   0.0000 
 24 H       -7.3470    -3.6570    -1.3220 H.spc     1 <1>   0.0000 
 25 C       -1.5020     0.1450    -0.2380 C.3   1 <1>   0.0000 
 26 H       -1.4910     0.4680    -1.2890 H.spc     1 <1>   0.0000 
 27 H       -1.9950     0.9450     0.3260 H.spc     1 <1>   0.0000 
 28 C       -0.0620    -0.0190     0.2340 C.3   1 <1>   0.3000 
 29 H       -0.0240    -0.1640     1.3200 H.spc     1 <1>   0.0000 
 30 H        0.4750     0.9070     0.0030 H.spc     1 <1>   0.0000 
 31 N        0.6300    -1.1630    -0.3800 N.am  1 <1>  -0.4690 
 32 C        2.0210    -1.2300    -0.5500 C.2   1 <1>   0.6900 
 33 O        2.5820    -2.1300    -1.1760 O.2   1 <1>  -0.5700 
 34 N        2.7430    -0.2300     0.0570 N.am  1 <1>  -0.7300 
 35 H        2.2840     0.4250     0.6650 H.spc     1 <1>   0.3700 
 36 C        4.1850    -0.1070    -0.1080 C.3   1 <1>   0.3000 
 37 H        4.4530    -0.4820    -1.1040 H.spc     1 <1>   0.0000 
 38 C        4.9130    -0.9450     0.9400 C.3   1 <1>   0.0000 
 39 H        4.6390    -2.0020     0.8570 H.spc     1 <1>   0.0000 
 40 H        4.6590    -0.6180     1.9540 H.spc     1 <1>   0.0000 
 41 H        5.9980    -0.8670     0.8170 H.spc     1 <1>   0.0000 
 42 C        4.6000     1.3580    -0.0160 C.3   1 <1>   0.0000 
 43 H        5.6780     1.4690    -0.1690 H.spc     1 <1>   0.0000 
 44 H        4.3470     1.7830     0.9630 H.spc     1 <1>   0.0000 
 45 H        4.0850     1.9540    -0.7770 H.spc     1 <1>   0.0000 
@<TRIPOS>BOND
  1   1   2  1   
  2   2   3  2   
  3   2  31  1   
  4   3   4  1   
  5   3   5  1   
  6   5   6  1   
  7   5   7  1   
  8   5  25  1   
  9   7   8  2   
 10   7   9  am  
 11   9  10  1   
 12   9  11  1   
 13  11  12  1   
 14  11  13  1   
 15  11  22  1   
 16  13  14  1   
 17  13  15  1   
 18  13  16  1   
 19  16  17  1   
 20  16  18  1   
 21  16  19  1   
 22  19  20  1   
 23  19  21  1   
 24  19  22  1   
 25  22  23  1   
 26  22  24  1   
 27  25  26  1   
 28  25  27  1   
 29  25  28  1   
 30  28  29  1   
 31  28  30  1   
 32  28  31  1   
 33  31  32  am  
 34  32  33  2   
 35  32  34  am  
 36  34  35  1   
 37  34  36  1   
 38  36  37  1   
 39  36  38  1   
 40  36  42  1   
 41  38  39  1   
 42  38  40  1   
 43  38  41  1   
 44  42  43  1   
 45  42  44  1   
 46  42  45  1   
@<TRIPOS>SUBSTRUCTURE
  1 ****   5 GROUP 4 **** **** 0
