@<TRIPOS>MOLECULE
CHEM006
19 20 1 0 0 
SMALL
USER_CHARGES


@<TRIPOS>ATOM
  1 H       -6.0020     3.2620     0.0050 H.spc      1 <1>   0.1500 
  2 C       -5.0980     2.6600     0.0030 C.ar  1 <1>   0.1600 
  3 N       -3.9430     3.3600     0.0050 N.ar  1 <1>  -0.6200 
  4 C       -2.7740     2.6760     0.0030 C.ar  1 <1>   0.3100 
  5 C       -1.5460     3.3680     0.0040 C.ar  1 <1>   0.1000 
  6 N       -1.5330     4.7650     0.0060 N.pl3 1 <1>  -0.9000 
  7 H       -0.6850     5.3080     0.0070 H.spc      1 <1>   0.4000 
  8 H       -2.4440     5.2180     0.0070 H.spc      1 <1>   0.4000 
  9 C       -0.3320     2.6710     0.0030 C.ar  1 <1>  -0.1500 
 10 H        0.6050     3.2210     0.0040 H.spc      1 <1>   0.1500 
 11 C       -0.3270     1.2810     0.0010 C.ar  1 <1>   0.1110 
 12 BR       1.3160     0.3460    -0.0010 Br    1 <1>  -0.1110 
 13 C       -1.5240     0.5730    -0.0010 C.ar  1 <1>  -0.1500 
 14 H       -1.5100    -0.5140    -0.0030 H.spc      1 <1>   0.1500 
 15 C       -2.7470     1.2630     0.0000 C.ar  1 <1>   0.0000 
 16 C       -3.9680     0.5740    -0.0020 C.ar  1 <1>  -0.1500 
 17 H       -3.9930    -0.5130    -0.0050 H.spc      1 <1>   0.1500 
 18 C       -5.1630     1.2810     0.0000 C.ar  1 <1>  -0.1500 
 19 H       -6.1180     0.7700    -0.0020 H.spc      1 <1>   0.1500 
@<TRIPOS>BOND
  1   1   2  1   
  2   2   3  ar  
  3   2  18  ar  
  4   3   4  ar  
  5   4   5  ar  
  6   4  15  ar  
  7   5   6  1   
  8   5   9  ar  
  9   6   7  1   
 10   6   8  1   
 11   9  10  1   
 12   9  11  ar  
 13  11  12  1   
 14  11  13  ar  
 15  13  14  1   
 16  13  15  ar  
 17  15  16  ar  
 18  16  17  1   
 19  16  18  ar  
 20  18  19  1   
@<TRIPOS>SUBSTRUCTURE
  1 ****   4 GROUP 4 **** **** 0
