@<TRIPOS>MOLECULE
CHEM093
25 27 1 0 0 
SMALL
USER_CHARGES


@<TRIPOS>ATOM
  1 H        1.9400     3.7920    -0.0700 H.spc     1 <1>   0.1500 
  2 C        1.0020     3.2440    -0.0350 C.ar  1 <1>  -0.1500 
  3 C        1.0150     1.8550     0.0610 C.ar  1 <1>  -0.1500 
  4 H        1.9670     1.3290     0.1010 H.spc     1 <1>   0.1500 
  5 C       -0.1750     1.1240     0.1070 C.ar  1 <1>  -0.1500 
  6 H       -0.1610     0.0410     0.1820 H.spc     1 <1>   0.1500 
  7 C       -1.3780     1.8380     0.0530 C.ar  1 <1>  -0.1520 
  8 C       -1.4230     3.2320    -0.0420 C.ar  1 <1>   0.0000 
  9 C       -0.2090     3.9450    -0.0870 C.ar  1 <1>  -0.1500 
 10 H       -0.2070     5.0280    -0.1620 H.spc     1 <1>   0.1500 
 11 C       -2.7960     3.6030    -0.0700 C.2   1 <1>  -0.1810 
 12 C       -3.5420     2.4430    -0.0040 C.2   1 <1>  -0.2370 
 13 N       -2.6790     1.3860     0.0770 N.pl3 1 <1>   0.0330 
 14 H       -2.9630     0.4170     0.1430 H.spc     1 <1>   0.2700 
 15 C       -4.9820     2.3740    -0.0130 C.2   1 <1>   0.5940 
 16 O       -5.6050     1.3190     0.0600 O.2   1 <1>  -0.5700 
 17 C       -5.6790     3.7210    -0.2010 C.3   1 <1>   0.0610 
 18 H       -5.8370     3.8700    -1.2750 H.spc     1 <1>   0.0000 
 19 H       -6.6580     3.6740     0.2890 H.spc     1 <1>   0.0000 
 20 C       -4.8700     4.8920     0.3850 C.3   1 <1>   0.0000 
 21 H       -4.8330     4.7820     1.4770 H.spc     1 <1>   0.0000 
 22 H       -5.3820     5.8380     0.1740 H.spc     1 <1>   0.0000 
 23 C       -3.4320     4.9490    -0.1610 C.3   1 <1>   0.1810 
 24 H       -2.8540     5.6880     0.4050 H.spc     1 <1>   0.0000 
 25 H       -3.4470     5.2690    -1.2090 H.spc     1 <1>   0.0000 
@<TRIPOS>BOND
  1   1   2  1   
  2   2   3  ar  
  3   2   9  ar  
  4   3   4  1   
  5   3   5  ar  
  6   5   6  1   
  7   5   7  ar  
  8   7   8  ar  
  9   7  13  1   
 10   8   9  ar  
 11   8  11  1   
 12   9  10  1   
 13  11  12  2   
 14  11  23  1   
 15  12  13  1   
 16  12  15  1   
 17  13  14  1   
 18  15  16  2   
 19  15  17  1   
 20  17  18  1   
 21  17  19  1   
 22  17  20  1   
 23  20  21  1   
 24  20  22  1   
 25  20  23  1   
 26  23  24  1   
 27  23  25  1   
@<TRIPOS>SUBSTRUCTURE
  1 ****  11 GROUP 4 **** **** 0
