@<TRIPOS>MOLECULE
CHEM152
19 20 1 0 0 
SMALL
USER_CHARGES


@<TRIPOS>ATOM
  1 H        8.8210     0.3090    -0.4130 H.spc     1 <1>   0.4000 
  2 O        7.8900     0.5860    -0.3980 O.3   1 <1>  -0.6800 
  3 C        7.8040     1.6640     0.5260 C.3   1 <1>   0.4600 
  4 H        8.1280     1.3120     1.5100 H.spc     1 <1>   0.0000 
  5 H        8.4630     2.4700     0.1910 H.spc     1 <1>   0.0000 
  6 C        6.4020     2.1180     0.5680 C.2   1 <1>  -0.0400 
  7 O        6.1390     3.1640     1.3960 O.3   1 <1>  -0.0190 
  8 N        4.7960     3.4800     1.3290 N.2   1 <1>  -0.4100 
  9 C        4.2540     2.6180     0.4580 C.2   1 <1>   0.2880 
 10 C        2.8410     2.6480     0.1280 C.2   1 <1>   0.0410 
 11 S        1.7590     3.8010     0.7530 S.3   1 <1>  -0.0800 
 12 C        0.4470     3.1180    -0.1100 C.2   1 <1>  -0.1100 
 13 H       -0.5420     3.5480    -0.0250 H.spc     1 <1>   0.1500 
 14 C        0.8360     2.0290    -0.8600 C.2   1 <1>  -0.1500 
 15 H        0.1540     1.4570    -1.4780 H.spc     1 <1>   0.1500 
 16 C        2.2310     1.7530    -0.7230 C.2   1 <1>  -0.1500 
 17 H        2.7320     0.9380    -1.2300 H.spc     1 <1>   0.1500 
 18 C        5.2350     1.7350    -0.0500 C.2   1 <1>  -0.1500 
 19 H        5.1300     0.9320    -0.7630 H.spc     1 <1>   0.1500 
@<TRIPOS>BOND
  1   1   2  1   
  2   2   3  1   
  3   3   4  1   
  4   3   5  1   
  5   3   6  1   
  6   6   7  1   
  7   6  18  2   
  8   7   8  1   
  9   8   9  2   
 10   9  10  1   
 11   9  18  1   
 12  10  11  1   
 13  10  16  2   
 14  11  12  1   
 15  12  13  1   
 16  12  14  2   
 17  14  15  1   
 18  14  16  1   
 19  16  17  1   
 20  18  19  1   
@<TRIPOS>SUBSTRUCTURE
  1 ****   9 GROUP 4 **** **** 0
