@<TRIPOS>MOLECULE
CHEM142
22 22 1 0 0 
SMALL
USER_CHARGES


@<TRIPOS>ATOM
  1 H       11.4410     0.7290     1.0230 H.spc     1 <1>   0.5000 
  2 O       10.6790     0.2990     0.5770 O.3   1 <1>  -0.6500 
  3 C        9.6600     1.1640     0.7890 C.2   1 <1>   0.6590 
  4 O        9.8670     2.1950     1.4050 O.2   1 <1>  -0.5700 
  5 C        8.3800     0.6690     0.1550 C.3   1 <1>   0.2910 
  6 H        8.2120    -0.3630     0.4760 H.spc     1 <1>   0.0000 
  7 H        8.4980     0.7130    -0.9320 H.spc     1 <1>   0.0000 
  8 S        6.9380     1.6640     0.6420 S.3   1 <1>  -0.4600 
  9 C        5.6720     0.7850    -0.3170 C.3   1 <1>   0.3740 
 10 H        5.6590    -0.2700    -0.0210 H.spc     1 <1>   0.0000 
 11 H        5.9320     0.8180    -1.3810 H.spc     1 <1>   0.0000 
 12 C        4.3040     1.3860    -0.1120 C.ar  1 <1>  -0.1440 
 13 C        3.4640     0.9140     0.9110 C.ar  1 <1>  -0.1500 
 14 H        3.7920     0.1100     1.5650 H.spc     1 <1>   0.1500 
 15 C        2.2020     1.4790     1.1060 C.ar  1 <1>  -0.1500 
 16 H        1.5500     1.1200     1.8950 H.spc     1 <1>   0.1500 
 17 C        1.7820     2.5180     0.2860 C.ar  1 <1>   0.1900 
 18 F        0.5720     3.0600     0.4750 F     1 <1>  -0.1900 
 19 C        2.6000     3.0070    -0.7260 C.ar  1 <1>  -0.1500 
 20 H        2.2540     3.8260    -1.3490 H.spc     1 <1>   0.1500 
 21 C        3.8620     2.4440    -0.9240 C.ar  1 <1>  -0.1500 
 22 H        4.5030     2.8400    -1.7080 H.spc     1 <1>   0.1500 
@<TRIPOS>BOND
  1   1   2  1   
  2   2   3  1   
  3   3   4  2   
  4   3   5  1   
  5   5   6  1   
  6   5   7  1   
  7   5   8  1   
  8   8   9  1   
  9   9  10  1   
 10   9  11  1   
 11   9  12  1   
 12  12  13  ar  
 13  12  21  ar  
 14  13  14  1   
 15  13  15  ar  
 16  15  16  1   
 17  15  17  ar  
 18  17  18  1   
 19  17  19  ar  
 20  19  20  1   
 21  19  21  ar  
 22  21  22  1   
@<TRIPOS>SUBSTRUCTURE
  1 ****   9 GROUP 4 **** **** 0
