@<TRIPOS>MOLECULE
CHEM109
10 10 1 0 0 
SMALL
USER_CHARGES


@<TRIPOS>ATOM
  1 H        5.3900    -2.3490     0.0050 H.spc     1 <1>   0.5000 
  2 O        4.4310    -2.5540     0.0050 O.3   1 <1>  -0.6500 
  3 C        3.8610    -1.3230     0.0010 C.2   1 <1>   0.8060 
  4 O        4.5830    -0.3350    -0.0010 O.2   1 <1>  -0.5700 
  5 C        2.4040    -1.3380     0.0000 C.2   1 <1>   0.2030 
  6 N        1.7000    -0.1940    -0.0040 N.2   1 <1>  -0.5100 
  7 S        0.0920    -0.6520    -0.0050 S.3   1 <1>   0.4410 
  8 N        0.2620    -2.3170     0.0000 N.2   1 <1>  -0.5100 
  9 C        1.5810    -2.5160     0.0020 C.2   1 <1>   0.1390 
 10 H        1.9350    -3.5390     0.0050 H.spc     1 <1>   0.1500 
@<TRIPOS>BOND
  1   1   2  1   
  2   2   3  1   
  3   3   4  2   
  4   3   5  1   
  5   5   6  2   
  6   5   9  1   
  7   6   7  1   
  8   7   8  1   
  9   8   9  2   
 10   9  10  1   
@<TRIPOS>SUBSTRUCTURE
  1 ****   5 GROUP 4 **** **** 0
