@<TRIPOS>MOLECULE
CHEM049
34 35 1 0 0 
SMALL
USER_CHARGES


@<TRIPOS>ATOM
  1 H        1.9150     0.3190    -2.8600 H.spc     1 <1>   0.1500 
  2 C        2.4000     0.3470    -1.8890 C.ar  1 <1>  -0.1500 
  3 C        3.6770    -0.1960    -1.7280 C.ar  1 <1>  -0.1500 
  4 H        4.1800    -0.6490    -2.5790 H.spc     1 <1>   0.1500 
  5 C        4.3160    -0.1550    -0.4850 C.ar  1 <1>   0.0820 
  6 O        5.5600    -0.7250    -0.4630 O.3   1 <1>  -0.3630 
  7 C        6.2550    -0.6990     0.7770 C.3   1 <1>   0.2800 
  8 H        5.7130    -1.2600     1.5460 H.spc     1 <1>   0.0000 
  9 H        7.2220    -1.1900     0.6280 H.spc     1 <1>   0.0000 
 10 H        6.4500     0.3290     1.1000 H.spc     1 <1>   0.0000 
 11 C        3.6670     0.4420     0.5960 C.ar  1 <1>  -0.1500 
 12 H        4.1250     0.5080     1.5770 H.spc     1 <1>   0.1500 
 13 C        2.3870     0.9830     0.4320 C.ar  1 <1>  -0.1500 
 14 H        1.8840     1.4550     1.2730 H.spc     1 <1>   0.1500 
 15 C        1.7410     0.9270    -0.8050 C.ar  1 <1>   0.1790 
 16 N        0.4620     1.4730    -0.9590 N.2   1 <1>  -0.6290 
 17 C       -0.5840     0.7220    -0.7900 C.2   1 <1>   0.4390 
 18 N       -0.5730    -0.6120    -0.4610 N.pl3 1 <1>  -0.8190 
 19 H        0.3350    -1.0490    -0.3500 H.spc     1 <1>   0.4000 
 20 C       -1.7230    -1.4570    -0.2550 C.3   1 <1>   0.3690 
 21 H       -2.3450    -1.4940    -1.1560 H.spc     1 <1>   0.0000 
 22 H       -1.3630    -2.4780    -0.0820 H.spc     1 <1>   0.0000 
 23 C       -2.5260    -1.0120     0.9620 C.3   1 <1>   0.0000 
 24 H       -1.8590    -0.7950     1.8050 H.spc     1 <1>   0.0000 
 25 H       -3.1670    -1.8460     1.2730 H.spc     1 <1>   0.0000 
 26 C       -3.4320     0.1910     0.6950 C.3   1 <1>   0.0000 
 27 H       -4.0330     0.3730     1.5950 H.spc     1 <1>   0.0000 
 28 H       -4.1420    -0.0550    -0.1050 H.spc     1 <1>   0.0000 
 29 C       -2.6950     1.4840     0.3450 C.3   1 <1>   0.0000 
 30 H       -3.4430     2.2830     0.2650 H.spc     1 <1>   0.0000 
 31 H       -2.0220     1.7610     1.1660 H.spc     1 <1>   0.0000 
 32 C       -1.9300     1.4100    -0.9720 C.3   1 <1>   0.0610 
 33 H       -1.7500     2.4300    -1.3360 H.spc     1 <1>   0.0000 
 34 H       -2.5050     0.8910    -1.7460 H.spc     1 <1>   0.0000 
@<TRIPOS>BOND
  1   1   2  1   
  2   2   3  ar  
  3   2  15  ar  
  4   3   4  1   
  5   3   5  ar  
  6   5   6  1   
  7   5  11  ar  
  8   6   7  1   
  9   7   8  1   
 10   7   9  1   
 11   7  10  1   
 12  11  12  1   
 13  11  13  ar  
 14  13  14  1   
 15  13  15  ar  
 16  15  16  1   
 17  16  17  2   
 18  17  18  1   
 19  17  32  1   
 20  18  19  1   
 21  18  20  1   
 22  20  21  1   
 23  20  22  1   
 24  20  23  1   
 25  23  24  1   
 26  23  25  1   
 27  23  26  1   
 28  26  27  1   
 29  26  28  1   
 30  26  29  1   
 31  29  30  1   
 32  29  31  1   
 33  29  32  1   
 34  32  33  1   
 35  32  34  1   
@<TRIPOS>SUBSTRUCTURE
  1 ****  15 GROUP 4 **** **** 0
