@<TRIPOS>MOLECULE
CHEM166
21 21 1 0 0 
SMALL
USER_CHARGES


@<TRIPOS>ATOM
  1 H       -6.3260     4.8630    -1.7750 H.spc     1 <1>   0.1500 
  2 C       -5.5510     4.6040    -1.0650 C.2   1 <1>  -0.1100 
  3 S       -4.3030     3.5240    -1.5100 S.3   1 <1>  -0.0800 
  4 C       -3.5670     3.6400     0.0330 C.2   1 <1>  -0.1400 
  5 C       -2.3150     2.8700     0.3320 C.3   1 <1>   0.1800 
  6 H       -2.2810     2.6380     1.4040 H.spc     1 <1>   0.0000 
  7 H       -2.3260     1.9010    -0.1840 H.spc     1 <1>   0.0000 
  8 C       -1.0640     3.6560    -0.0600 C.3   1 <1>   0.3000 
  9 H       -1.0330     4.6190     0.4620 H.spc     1 <1>   0.0000 
 10 H       -1.0550     3.8650    -1.1360 H.spc     1 <1>   0.0000 
 11 N        0.1590     2.9390     0.2600 N.am  1 <1>  -0.7300 
 12 H        0.0990     2.0180     0.6780 H.spc     1 <1>   0.3700 
 13 C        1.4340     3.3410     0.0690 C.2   1 <1>   0.6900 
 14 O        2.3800     2.6330     0.3910 O.2   1 <1>  -0.5700 
 15 N        1.6190     4.5510    -0.4890 N.am  1 <1>  -0.8000 
 16 H        2.5720     4.8560    -0.6300 H.spc     1 <1>   0.3700 
 17 H        0.8670     5.1570    -0.7680 H.spc     1 <1>   0.3700 
 18 C       -4.2700     4.4850     0.8680 C.2   1 <1>  -0.1500 
 19 H       -3.9780     4.6950     1.8910 H.spc     1 <1>   0.1500 
 20 C       -5.4160     5.0440     0.2320 C.2   1 <1>  -0.1500 
 21 H       -6.1080     5.7320     0.7030 H.spc     1 <1>   0.1500 
@<TRIPOS>BOND
  1   1   2  1   
  2   2   3  1   
  3   2  20  2   
  4   3   4  1   
  5   4   5  1   
  6   4  18  2   
  7   5   6  1   
  8   5   7  1   
  9   5   8  1   
 10   8   9  1   
 11   8  10  1   
 12   8  11  1   
 13  11  12  1   
 14  11  13  am  
 15  13  14  2   
 16  13  15  am  
 17  15  16  1   
 18  15  17  1   
 19  18  19  1   
 20  18  20  1   
 21  20  21  1   
@<TRIPOS>SUBSTRUCTURE
  1 ****   8 GROUP 4 **** **** 0
