@<TRIPOS>MOLECULE
CHEM155
14 14 1 0 0 
SMALL
USER_CHARGES


@<TRIPOS>ATOM
  1 H       -0.6730     0.5170    -1.0040 H.spc     1 <1>   0.5000 
  2 O        0.0550     0.0920    -0.5050 O.3   1 <1>  -0.6500 
  3 C        1.0730     0.9750    -0.6320 C.2   1 <1>   0.7200 
  4 O        0.9360     2.0120    -1.2620 O.2   1 <1>  -0.5700 
  5 C        2.3470     0.5450     0.0590 C.3   1 <1>   0.1580 
  6 N        2.2330    -0.7060     0.8590 N.3   1 <1>  -0.8780 
  7 H        1.7950    -1.4180     0.2710 H.spc     1 <1>   0.3600 
  8 H        1.5500    -0.5540     1.6030 H.spc     1 <1>   0.3600 
  9 C        3.2930     1.6040     0.5770 C.3   1 <1>  -0.2000 
 10 H        3.8280     1.4100     1.4990 H.spc     1 <1>   0.1000 
 11 H        3.0340     2.6460     0.4270 H.spc     1 <1>   0.1000 
 12 C        3.6670     0.7970    -0.6330 C.3   1 <1>  -0.2000 
 13 H        4.4530     0.0580    -0.5250 H.spc     1 <1>   0.1000 
 14 H        3.6580     1.2960    -1.5950 H.spc     1 <1>   0.1000 
@<TRIPOS>BOND
  1   1   2  1   
  2   2   3  1   
  3   3   4  2   
  4   3   5  1   
  5   5   6  1   
  6   5   9  1   
  7   5  12  1   
  8   6   7  1   
  9   6   8  1   
 10   9  10  1   
 11   9  11  1   
 12   9  12  1   
 13  12  13  1   
 14  12  14  1   
@<TRIPOS>SUBSTRUCTURE
  1 ****   5 GROUP 4 **** **** 0
