@<TRIPOS>MOLECULE
CHEM073
30 31 1 0 0 
SMALL
USER_CHARGES


@<TRIPOS>ATOM
  1 H       10.9480    -3.0210     0.0350 H.spc     1 <1>   0.5000 
  2 O       10.1920    -2.4040     0.1400 O.3   1 <1>  -0.6500 
  3 C        9.1180    -3.1120    -0.2570 C.2   1 <1>   0.6590 
  4 O        9.2480    -4.2590    -0.6610 O.2   1 <1>  -0.5700 
  5 C        7.8130    -2.3130    -0.2120 C.3   1 <1>   0.3310 
  6 H        7.9140    -1.5210    -0.9630 H.spc     1 <1>   0.0000 
  7 N        6.6490    -3.1600    -0.5740 N.3   1 <1>  -0.9000 
  8 H        6.9080    -3.7820    -1.3420 H.spc     1 <1>   0.3600 
  9 C        6.3160    -3.9880     0.5900 C.3   1 <1>   0.6440 
 10 H        6.9760    -4.8640     0.6080 H.spc     1 <1>   0.0000 
 11 C        4.8750    -4.4500     0.5550 C.ar  1 <1>  -0.1440 
 12 C        4.5560    -5.7920     0.8190 C.ar  1 <1>  -0.1500 
 13 H        5.3450    -6.5070     1.0480 H.spc     1 <1>   0.1500 
 14 C        3.2290    -6.2400     0.8000 C.ar  1 <1>  -0.1500 
 15 H        3.0290    -7.2890     1.0100 H.spc     1 <1>   0.1500 
 16 C        2.1730    -5.3590     0.5250 C.ar  1 <1>  -0.1440 
 17 C        0.7650    -5.8840     0.5130 C.3   1 <1>   0.1440 
 18 H        0.0920    -5.2090     1.0520 H.spc     1 <1>   0.0000 
 19 H        0.4150    -6.0100    -0.5160 H.spc     1 <1>   0.0000 
 20 H        0.7010    -6.8570     1.0130 H.spc     1 <1>   0.0000 
 21 C        2.5000    -4.0190     0.2500 C.ar  1 <1>   0.1330 
 22 N        1.4650    -3.0470    -0.0770 N.pl3 1 <1>   0.9070 
 23 O        1.4490    -1.9950     0.5760 O.2   1 <1>  -0.5200 
 24 O        0.6820    -3.3320    -0.9940 O.2   1 <1>  -0.5200 
 25 C        3.8250    -3.5610     0.2740 C.ar  1 <1>  -0.1500 
 26 H        4.0470    -2.5140     0.0690 H.spc     1 <1>   0.1500 
 27 S        6.6810    -3.0180     2.0810 S.3   1 <1>  -0.4600 
 28 C        7.5350    -1.7130     1.1610 C.3   1 <1>   0.2300 
 29 H        6.8590    -0.8560     1.0800 H.spc     1 <1>   0.0000 
 30 H        8.4340    -1.4030     1.7000 H.spc     1 <1>   0.0000 
@<TRIPOS>BOND
  1   1   2  1   
  2   2   3  1   
  3   3   4  2   
  4   3   5  1   
  5   5   6  1   
  6   5   7  1   
  7   5  28  1   
  8   7   8  1   
  9   7   9  1   
 10   9  10  1   
 11   9  11  1   
 12   9  27  1   
 13  11  12  ar  
 14  11  25  ar  
 15  12  13  1   
 16  12  14  ar  
 17  14  15  1   
 18  14  16  ar  
 19  16  17  1   
 20  16  21  ar  
 21  17  18  1   
 22  17  19  1   
 23  17  20  1   
 24  21  22  1   
 25  21  25  ar  
 26  22  23  2   
 27  22  24  2   
 28  25  26  1   
 29  27  28  1   
 30  28  29  1   
 31  28  30  1   
@<TRIPOS>SUBSTRUCTURE
  1 ****  11 GROUP 4 **** **** 0
