@<TRIPOS>MOLECULE
CHEM063
22 22 1 0 0 
SMALL
USER_CHARGES


@<TRIPOS>ATOM
  1 H       -3.1310    -1.7270    -0.3700 H.spc     1 <1>   0.1500 
  2 C       -3.0460    -0.6490    -0.2580 C.ar  1 <1>  -0.1500 
  3 C       -1.7740    -0.0710    -0.2120 C.ar  1 <1>  -0.1500 
  4 H       -0.9230    -0.7400    -0.2920 H.spc     1 <1>   0.1500 
  5 C       -1.6120     1.3130    -0.0700 C.ar  1 <1>   0.1170 
  6 N       -0.3370     1.9250    -0.0230 N.am  1 <1>  -0.5470 
  7 H       -0.3270     2.9300     0.0770 H.spc     1 <1>   0.3700 
  8 C        0.9040     1.3160    -0.0970 C.2   1 <1>   0.5690 
  9 O        1.1420     0.1200    -0.2170 O.2   1 <1>  -0.5700 
 10 C        2.0240     2.3220    -0.0140 C.3   1 <1>   0.0610 
 11 H        2.9880     1.8060    -0.0490 H.spc     1 <1>   0.0000 
 12 H        1.9620     3.0150    -0.8590 H.spc     1 <1>   0.0000 
 13 H        1.9550     2.8810     0.9240 H.spc     1 <1>   0.0000 
 14 C       -2.7630     2.1280     0.0290 C.ar  1 <1>  -0.1440 
 15 C       -2.6830     3.6230     0.1850 C.3   1 <1>   0.1440 
 16 H       -2.1440     3.8810     1.1030 H.spc     1 <1>   0.0000 
 17 H       -2.1760     4.0680    -0.6780 H.spc     1 <1>   0.0000 
 18 H       -3.6770     4.0780     0.2520 H.spc     1 <1>   0.0000 
 19 C       -4.0390     1.5340    -0.0190 C.ar  1 <1>  -0.1500 
 20 H       -4.9270     2.1580     0.0560 H.spc     1 <1>   0.1500 
 21 C       -4.1750     0.1550    -0.1620 C.ar  1 <1>   0.0810 
 22 I       -6.0670    -0.7010    -0.2310 I     1 <1>  -0.0810 
@<TRIPOS>BOND
  1   1   2  1   
  2   2   3  ar  
  3   2  21  ar  
  4   3   4  1   
  5   3   5  ar  
  6   5   6  1   
  7   5  14  ar  
  8   6   7  1   
  9   6   8  am  
 10   8   9  2   
 11   8  10  1   
 12  10  11  1   
 13  10  12  1   
 14  10  13  1   
 15  14  15  1   
 16  14  19  ar  
 17  15  16  1   
 18  15  17  1   
 19  15  18  1   
 20  19  20  1   
 21  19  21  ar  
 22  21  22  1   
@<TRIPOS>SUBSTRUCTURE
  1 ****   5 GROUP 4 **** **** 0
