@<TRIPOS>MOLECULE
CHEM032
24 24 1 0 0 
SMALL
USER_CHARGES


@<TRIPOS>ATOM
  1 H        4.9840     0.6270    -0.2970 H.spc     1 <1>   0.4000 
  2 N        4.0030     0.3800    -0.4970 N.2   1 <1>  -0.8500 
  3 C        3.8540    -0.9180    -0.4550 C.2   1 <1>   0.3280 
  4 C        4.9920    -1.8910    -0.1570 C.3   1 <1>   1.0810 
  5 F        6.1260    -1.5130    -0.8180 F     1 <1>  -0.3400 
  6 F        4.7320    -3.1630    -0.5530 F     1 <1>  -0.3400 
  7 F        5.3310    -1.9260     1.1570 F     1 <1>  -0.3400 
  8 C        2.4870    -1.5010    -0.7240 C.3   1 <1>   0.1220 
  9 H        1.8260    -0.6870    -1.0400 H.spc     1 <1>   0.0000 
 10 H        2.5970    -2.2240    -1.5380 H.spc     1 <1>   0.0000 
 11 C        1.8940    -2.1920     0.4770 C.2   1 <1>   0.4230 
 12 O        2.5970    -2.5100     1.4360 O.2   1 <1>  -0.5700 
 13 C        0.4310    -2.4820     0.5210 C.ar  1 <1>   0.0860 
 14 C       -0.1450    -2.6640     1.7900 C.ar  1 <1>  -0.1500 
 15 H        0.4700    -2.5970     2.6860 H.spc     1 <1>   0.1500 
 16 C       -1.5090    -2.9290     1.9220 C.ar  1 <1>  -0.1500 
 17 H       -1.9420    -3.0650     2.9110 H.spc     1 <1>   0.1500 
 18 C       -2.3120    -3.0200     0.7880 C.ar  1 <1>  -0.1500 
 19 H       -3.3750    -3.2270     0.8910 H.spc     1 <1>   0.1500 
 20 C       -1.7510    -2.8530    -0.4790 C.ar  1 <1>  -0.1500 
 21 H       -2.3960    -2.9390    -1.3490 H.spc     1 <1>   0.1500 
 22 C       -0.3840    -2.5890    -0.6120 C.ar  1 <1>   0.0820 
 23 O        0.1390    -2.4650    -1.8680 O.3   1 <1>  -0.5320 
 24 H       -0.5660    -2.5920    -2.5260 H.spc     1 <1>   0.4500 
@<TRIPOS>BOND
  1   1   2  1   
  2   2   3  2   
  3   3   4  1   
  4   3   8  1   
  5   4   5  1   
  6   4   6  1   
  7   4   7  1   
  8   8   9  1   
  9   8  10  1   
 10   8  11  1   
 11  11  12  2   
 12  11  13  1   
 13  13  14  ar  
 14  13  22  ar  
 15  14  15  1   
 16  14  16  ar  
 17  16  17  1   
 18  16  18  ar  
 19  18  19  1   
 20  18  20  ar  
 21  20  21  1   
 22  20  22  ar  
 23  22  23  1   
 24  23  24  1   
@<TRIPOS>SUBSTRUCTURE
  1 ****  11 GROUP 4 **** **** 0
