@<TRIPOS>MOLECULE
CHEM107
14 14 1 0 0 
SMALL
USER_CHARGES


@<TRIPOS>ATOM
  1 H       -2.8660     0.2070    -0.2270 H.spc     1 <1>   0.1500 
  2 C       -1.9910     0.8370    -0.1180 C.2   1 <1>   0.0370 
  3 N       -0.7460     0.4120    -0.0720 N.2   1 <1>  -0.5650 
  4 C        0.0200     1.5470     0.0710 C.2   1 <1>   0.2460 
  5 C        1.4460     1.4820     0.1600 C.1   1 <1>   0.5380 
  6 N        2.6050     1.4620     0.2350 N.1   1 <1>  -0.5570 
  7 C       -0.7770     2.6660     0.1090 C.2   1 <1>  -0.1320 
  8 C       -0.4400     4.0330     0.2420 C.1   1 <1>   0.5370 
  9 N       -0.2010     5.1620     0.3480 N.1   1 <1>  -0.5570 
 10 N       -2.0600     2.2000    -0.0110 N.pl3 1 <1>   0.0480 
 11 C       -3.2740     2.9810    -0.0240 C.3   1 <1>   0.2560 
 12 H       -3.2310     3.6760    -0.8660 H.spc     1 <1>   0.0000 
 13 H       -3.3500     3.5210     0.9220 H.spc     1 <1>   0.0000 
 14 H       -4.1340     2.3160    -0.1390 H.spc     1 <1>   0.0000 
@<TRIPOS>BOND
  1   1   2  1   
  2   2   3  2   
  3   2  10  1   
  4   3   4  1   
  5   4   5  1   
  6   4   7  2   
  7   5   6  3   
  8   7   8  1   
  9   7  10  1   
 10   8   9  3   
 11  10  11  1   
 12  11  12  1   
 13  11  13  1   
 14  11  14  1   
@<TRIPOS>SUBSTRUCTURE
  1 ****   7 GROUP 4 **** **** 0
