@<TRIPOS>MOLECULE
CHEM044
25 25 1 0 0 
SMALL
USER_CHARGES


@<TRIPOS>ATOM
  1 H       -6.3260     3.8920     1.4760 H.spc     1 <1>   0.1500 
  2 C       -5.8460     3.1980     0.8010 C.2   1 <1>  -0.0490 
  3 S       -4.1450     3.3170     0.3880 S.3   1 <1>  -0.2420 
  4 C       -4.2650     1.8890    -0.6790 C.2   1 <1>   0.6410 
  5 N       -3.3210     1.3280    -1.3540 N.2   1 <1>  -0.6610 
  6 C       -2.0820     1.9220    -1.3160 C.2   1 <1>   0.7200 
  7 O       -1.8000     2.9230    -1.9670 O.2   1 <1>  -0.5700 
  8 C       -1.0740     1.1710    -0.4290 C.3   1 <1>   0.3410 
  9 H       -0.9950     0.1490    -0.8190 H.spc     1 <1>   0.0000 
 10 H       -1.4860     1.1390     0.5870 H.spc     1 <1>   0.0000 
 11 O        0.2200     1.7560    -0.3890 O.3   1 <1>  -0.5600 
 12 C        1.1120     1.0220     0.4430 C.3   1 <1>   0.2800 
 13 H        1.2060    -0.0050     0.0720 H.spc     1 <1>   0.0000 
 14 H        0.7290     0.9990     1.4680 H.spc     1 <1>   0.0000 
 15 C        2.4660     1.7040     0.4130 C.3   1 <1>   0.0000 
 16 H        3.1840     1.1730     1.0450 H.spc     1 <1>   0.0000 
 17 H        2.8550     1.7430    -0.6090 H.spc     1 <1>   0.0000 
 18 H        2.3840     2.7380     0.7630 H.spc     1 <1>   0.0000 
 19 N       -5.5640     1.4520    -0.6290 N.pl3 1 <1>  -0.5500 
 20 H       -5.8670     0.6510    -1.1640 H.spc     1 <1>   0.4000 
 21 C       -6.4320     2.1610     0.1770 C.2   1 <1>  -0.0380 
 22 C       -7.8620     1.7620     0.2960 C.3   1 <1>   0.1380 
 23 H       -8.4090     2.4190     0.9800 H.spc     1 <1>   0.0000 
 24 H       -7.9430     0.7390     0.6770 H.spc     1 <1>   0.0000 
 25 H       -8.3540     1.8070    -0.6810 H.spc     1 <1>   0.0000 
@<TRIPOS>BOND
  1   1   2  1   
  2   2   3  1   
  3   2  21  2   
  4   3   4  1   
  5   4   5  2   
  6   4  19  1   
  7   5   6  1   
  8   6   7  2   
  9   6   8  1   
 10   8   9  1   
 11   8  10  1   
 12   8  11  1   
 13  11  12  1   
 14  12  13  1   
 15  12  14  1   
 16  12  15  1   
 17  15  16  1   
 18  15  17  1   
 19  15  18  1   
 20  19  20  1   
 21  19  21  1   
 22  21  22  1   
 23  22  23  1   
 24  22  24  1   
 25  22  25  1   
@<TRIPOS>SUBSTRUCTURE
  1 ****   5 GROUP 4 **** **** 0
