@<TRIPOS>MOLECULE
CHEM139
19 19 1 0 0 
SMALL
USER_CHARGES


@<TRIPOS>ATOM
  1 H        1.3780     4.3910     0.0150 H.spc     1 <1>   0.4000 
  2 N        2.0670     3.6550     0.0240 N.pl3 1 <1>  -0.9000 
  3 H        3.0620     3.8770     0.0460 H.spc     1 <1>   0.4000 
  4 C        1.7100     2.3540     0.0090 C.2   1 <1>   0.2090 
  5 C        2.4870     1.2450     0.0130 C.2   1 <1>   0.1230 
  6 C        3.9750     1.2340     0.0330 C.2   1 <1>   0.6160 
  7 O        4.6330     2.2690     0.0940 O.2   1 <1>  -0.5700 
  8 N        4.5460    -0.0170    -0.0270 N.am  1 <1>  -0.7300 
  9 H        3.9710    -0.8410    -0.0900 H.spc     1 <1>   0.3700 
 10 C        5.9780    -0.1760    -0.0070 C.3   1 <1>   0.3000 
 11 H        6.2140    -1.2420    -0.0030 H.spc     1 <1>   0.0000 
 12 H        6.3850     0.3010     0.8880 H.spc     1 <1>   0.0000 
 13 H        6.4040     0.2970    -0.8970 H.spc     1 <1>   0.0000 
 14 N        1.6800     0.1240    -0.0040 N.am  1 <1>  -0.5390 
 15 H        1.9640    -0.8410     0.0000 H.spc     1 <1>   0.3700 
 16 C        0.3540     0.5440    -0.0220 C.2   1 <1>   0.5000 
 17 S       -0.9850    -0.4110    -0.0480 S.2   1 <1>  -0.3800 
 18 N        0.4020     1.9350    -0.0140 N.am  1 <1>  -0.5390 
 19 H       -0.4030     2.5400    -0.0230 H.spc     1 <1>   0.3700 
@<TRIPOS>BOND
  1   1   2  1   
  2   2   3  1   
  3   2   4  1   
  4   4   5  2   
  5   4  18  1   
  6   5   6  1   
  7   5  14  1   
  8   6   7  2   
  9   6   8  am  
 10   8   9  1   
 11   8  10  1   
 12  10  11  1   
 13  10  12  1   
 14  10  13  1   
 15  14  15  1   
 16  14  16  am  
 17  16  17  2   
 18  16  18  am  
 19  18  19  1   
@<TRIPOS>SUBSTRUCTURE
  1 ****   5 GROUP 4 **** **** 0
