@<TRIPOS>MOLECULE
CHEM088
33 34 1 0 0 
SMALL
USER_CHARGES


@<TRIPOS>ATOM
  1 H       -3.2990     3.5400     0.6860 H.spc     1 <1>   0.1500 
  2 C       -2.3720     4.0850     0.5230 C.ar  1 <1>  -0.1500 
  3 C       -2.3920     5.4900     0.4800 C.ar  1 <1>  -0.1500 
  4 H       -3.3360     6.0140     0.6100 H.spc     1 <1>   0.1500 
  5 C       -1.2170     6.2240     0.2790 C.ar  1 <1>  -0.1500 
  6 H       -1.2630     7.3050     0.2580 H.spc     1 <1>   0.1500 
  7 C       -0.0310     5.5320     0.1180 C.ar  1 <1>   0.1000 
  8 C       -0.0190     4.1140     0.1600 C.ar  1 <1>   0.1000 
  9 C       -1.1750     3.3830     0.3640 C.ar  1 <1>  -0.1500 
 10 H       -1.1680     2.3010     0.4110 H.spc     1 <1>   0.1500 
 11 N        1.3210     3.6860    -0.0230 N.pl3 1 <1>  -0.2110 
 12 N        1.7040     2.3630    -0.0190 N.3   1 <1>  -0.7090 
 13 H        0.8950     1.7510    -0.1110 H.spc     1 <1>   0.3600 
 14 H        2.2610     2.1630    -0.8600 H.spc     1 <1>   0.3600 
 15 C        2.1360     4.8360    -0.1590 C.2   1 <1>   0.2000 
 16 C        3.4840     4.8490    -0.2990 C.2   1 <1>   0.0790 
 17 C        4.2690     6.0260    -0.3590 C.1   1 <1>   0.4920 
 18 N        4.9130     6.9910    -0.4160 N.1   1 <1>  -0.5570 
 19 C        4.2470     3.5940    -0.4030 C.2   1 <1>   0.7060 
 20 O        4.1350     2.7950    -1.3230 O.2   1 <1>  -0.5700 
 21 O        5.1010     3.4970     0.6490 O.3   1 <1>  -0.4300 
 22 C        5.9090     2.3120     0.6880 C.3   1 <1>   0.2800 
 23 H        6.1610     2.1300     1.7380 H.spc     1 <1>   0.0000 
 24 H        5.3520     1.4380     0.3330 H.spc     1 <1>   0.0000 
 25 C        7.1810     2.5230    -0.1140 C.3   1 <1>   0.0000 
 26 H        7.8360     1.6500    -0.0390 H.spc     1 <1>   0.0000 
 27 H        7.7210     3.4040     0.2480 H.spc     1 <1>   0.0000 
 28 H        6.9540     2.7000    -1.1700 H.spc     1 <1>   0.0000 
 29 N        1.2860     5.9850    -0.0920 N.pl3 1 <1>  -0.5690 
 30 C        1.5950     7.3940    -0.1970 C.3   1 <1>   0.3690 
 31 H        2.1740     7.5950    -1.1050 H.spc     1 <1>   0.0000 
 32 H        2.1660     7.7260     0.6760 H.spc     1 <1>   0.0000 
 33 H        0.7090     8.0310    -0.2640 H.spc     1 <1>   0.0000 
@<TRIPOS>BOND
  1   1   2  1   
  2   2   3  ar  
  3   2   9  ar  
  4   3   4  1   
  5   3   5  ar  
  6   5   6  1   
  7   5   7  ar  
  8   7   8  ar  
  9   7  29  1   
 10   8   9  ar  
 11   8  11  1   
 12   9  10  1   
 13  11  12  1   
 14  11  15  1   
 15  12  13  1   
 16  12  14  1   
 17  15  16  2   
 18  15  29  1   
 19  16  17  1   
 20  16  19  1   
 21  17  18  3   
 22  19  20  2   
 23  19  21  1   
 24  21  22  1   
 25  22  23  1   
 26  22  24  1   
 27  22  25  1   
 28  25  26  1   
 29  25  27  1   
 30  25  28  1   
 31  29  30  1   
 32  30  31  1   
 33  30  32  1   
 34  30  33  1   
@<TRIPOS>SUBSTRUCTURE
  1 ****  15 GROUP 4 **** **** 0
