@<TRIPOS>MOLECULE
CHEM018
34 35 1 0 0 
SMALL
USER_CHARGES


@<TRIPOS>ATOM
  1 H        4.0320     1.5210    -1.2480 H.spc      1 <1>   0.4000 
  2 O        3.0530     1.5750    -1.2290 O.3   1 <1>  -0.6800 
  3 C        2.6460     0.7180    -0.1530 C.3   1 <1>   0.5800 
  4 C        3.1090     1.2520     1.2320 C.3   1 <1>   1.0200 
  5 F        4.4360     1.4930     1.2830 F     1 <1>  -0.3400 
  6 F        2.4850     2.4200     1.5300 F     1 <1>  -0.3400 
  7 F        2.8110     0.3850     2.2300 F     1 <1>  -0.3400 
  8 N        3.1430    -0.6290    -0.4300 N.am  1 <1>  -0.2980 
  9 C        4.4770    -0.9140    -0.6460 C.2   1 <1>   0.7800 
 10 O        5.3330    -0.0350    -0.7170 O.2   1 <1>  -0.5700 
 11 O        4.7270    -2.2440    -0.7880 O.3   1 <1>  -0.4300 
 12 C        6.0970    -2.5630    -1.0240 C.3   1 <1>   0.2800 
 13 H        6.1810    -3.6490    -1.1190 H.spc      1 <1>   0.0000 
 14 H        6.4430    -2.1060    -1.9560 H.spc      1 <1>   0.0000 
 15 H        6.7170    -2.2420    -0.1810 H.spc      1 <1>   0.0000 
 16 N        2.1680    -1.5930    -0.4370 N.2   1 <1>  -0.5120 
 17 C        1.0410    -0.9800    -0.2550 C.2   1 <1>   0.3280 
 18 C       -0.2640    -1.7240    -0.1930 C.3   1 <1>   0.0610 
 19 H       -0.5580    -2.0100    -1.2080 H.spc      1 <1>   0.0000 
 20 H       -0.0880    -2.6550     0.3600 H.spc      1 <1>   0.0000 
 21 C       -1.3660    -0.9340     0.5030 C.3   1 <1>   0.0000 
 22 H       -2.2270    -1.5980     0.6520 H.spc      1 <1>   0.0000 
 23 H       -1.0340    -0.6580     1.5120 H.spc      1 <1>   0.0000 
 24 C       -1.8570     0.3340    -0.2170 C.3   1 <1>   0.0000 
 25 H       -1.8620     1.1700     0.4940 H.spc      1 <1>   0.0000 
 26 H       -2.9090     0.1780    -0.4890 H.spc      1 <1>   0.0000 
 27 C       -1.1060     0.7460    -1.4810 C.3   1 <1>   0.0000 
 28 H       -1.6520     1.5700    -1.9590 H.spc      1 <1>   0.0000 
 29 H       -1.1410    -0.0750    -2.2080 H.spc      1 <1>   0.0000 
 30 C        0.3490     1.1930    -1.2900 C.3   1 <1>   0.0000 
 31 H        0.3590     2.2760    -1.1120 H.spc      1 <1>   0.0000 
 32 H        0.8610     1.0340    -2.2480 H.spc      1 <1>   0.0000 
 33 C        1.1120     0.5210    -0.1490 C.3   1 <1>   0.0610 
 34 H        0.6850     0.8190     0.8150 H.spc      1 <1>   0.0000 
@<TRIPOS>BOND
  1   1   2  1   
  2   2   3  1   
  3   3   4  1   
  4   3   8  1   
  5   3  33  1   
  6   4   5  1   
  7   4   6  1   
  8   4   7  1   
  9   8   9  am  
 10   8  16  1   
 11   9  10  2   
 12   9  11  1   
 13  11  12  1   
 14  12  13  1   
 15  12  14  1   
 16  12  15  1   
 17  16  17  2   
 18  17  18  1   
 19  17  33  1   
 20  18  19  1   
 21  18  20  1   
 22  18  21  1   
 23  21  22  1   
 24  21  23  1   
 25  21  24  1   
 26  24  25  1   
 27  24  26  1   
 28  24  27  1   
 29  27  28  1   
 30  27  29  1   
 31  27  30  1   
 32  30  31  1   
 33  30  32  1   
 34  30  33  1   
 35  33  34  1   
@<TRIPOS>SUBSTRUCTURE
  1 ****   3 GROUP 4 **** **** 0
