@<TRIPOS>MOLECULE
CHEM123
9 9 1 0 0 
SMALL
USER_CHARGES


@<TRIPOS>ATOM
  1 N        6.9540    -0.7810     0.0050 N.1   1 <1>  -0.5570 
  2 C        5.7950    -0.8230     0.0000 C.1   1 <1>   0.5370 
  3 C        4.3750    -0.8830    -0.0060 C.2   1 <1>   0.0600 
  4 S        3.4910    -2.3430    -0.0170 S.3   1 <1>   0.1810 
  5 N        1.9890    -1.6420    -0.0190 N.2   1 <1>  -0.5100 
  6 C        2.1460    -0.3200    -0.0100 C.2   1 <1>   0.4120 
  7 CL       0.7440     0.6560    -0.0090 Cl    1 <1>  -0.1230 
  8 C        3.4890     0.1740    -0.0020 C.2   1 <1>   0.1230 
  9 CL       3.9100     1.8340     0.0090 Cl    1 <1>  -0.1230 
@<TRIPOS>BOND
  1   1   2  3   
  2   2   3  1   
  3   3   4  1   
  4   3   8  2   
  5   4   5  1   
  6   5   6  2   
  7   6   7  1   
  8   6   8  1   
  9   8   9  1   
@<TRIPOS>SUBSTRUCTURE
  1 ****   8 GROUP 4 **** **** 0
