@<TRIPOS>MOLECULE
CHEM003
21 21 1 0 0 
SMALL
USER_CHARGES


@<TRIPOS>ATOM
  1 H        6.2650    -5.2160    -0.0540 H.spc      1 <1>   0.5000 
  2 O        5.3120    -4.9880     0.0610 O.3   1 <1>  -0.6500 
  3 C        5.3080    -3.6910     0.4230 C.2   1 <1>   0.6590 
  4 O        6.3460    -3.0550     0.4680 O.2   1 <1>  -0.5700 
  5 C        3.9440    -3.1600     0.7640 C.3   1 <1>   0.2910 
  6 H        3.9460    -2.0730     0.6430 H.spc      1 <1>   0.0000 
  7 BR       3.6690    -3.5170     2.6600 Br    1 <1>  -0.2300 
  8 C        2.8680    -3.8170    -0.0810 C.3   1 <1>   0.4880 
  9 H        2.6850    -4.8630     0.1920 H.spc      1 <1>   0.0000 
 10 H        3.1280    -3.8040    -1.1470 H.spc      1 <1>   0.0000 
 11 N        1.5720    -3.0860     0.0380 N.ar  1 <1>  -0.2100 
 12 C        1.3640    -1.9640    -0.6940 C.ar  1 <1>   0.2110 
 13 H        2.1660    -1.6270    -1.3450 H.spc      1 <1>   0.1500 
 14 C        0.1610    -1.2740    -0.6090 C.ar  1 <1>  -0.1500 
 15 H        0.0010    -0.3720    -1.1960 H.spc      1 <1>   0.1500 
 16 C       -0.8380    -1.7470     0.2310 C.ar  1 <1>  -0.1500 
 17 H       -1.7870    -1.2180     0.3090 H.spc      1 <1>   0.1500 
 18 C       -0.6190    -2.9040     0.9660 C.ar  1 <1>  -0.1500 
 19 H       -1.3940    -3.2900     1.6240 H.spc      1 <1>   0.1500 
 20 C        0.5990    -3.5650     0.8510 C.ar  1 <1>   0.2110 
 21 H        0.8020    -4.4750     1.4090 H.spc      1 <1>   0.1500 
@<TRIPOS>BOND
  1   1   2  1   
  2   2   3  1   
  3   3   4  2   
  4   3   5  1   
  5   5   6  1   
  6   5   7  1   
  7   5   8  1   
  8   8   9  1   
  9   8  10  1   
 10   8  11  1   
 11  11  12  ar  
 12  11  20  ar  
 13  12  13  1   
 14  12  14  ar  
 15  14  15  1   
 16  14  16  ar  
 17  16  17  1   
 18  16  18  ar  
 19  18  19  1   
 20  18  20  ar  
 21  20  21  1   
@<TRIPOS>SUBSTRUCTURE
  1 ****  11 GROUP 4 **** **** 0
