@<TRIPOS>MOLECULE
CHEM045
31 33 1 0 0 
SMALL
USER_CHARGES


@<TRIPOS>ATOM
  1 H        4.5050     6.1910    -0.0120 H.spc     1 <1>   0.1500 
  2 C        4.0100     5.2240     0.0030 C.ar  1 <1>  -0.1500 
  3 C        4.7650     4.0500     0.0180 C.ar  1 <1>  -0.1500 
  4 H        5.8460     4.1390     0.0140 H.spc     1 <1>   0.1500 
  5 C        4.1260     2.8110     0.0380 C.ar  1 <1>   0.0820 
  6 O        4.7420     1.5890     0.0540 O.3   1 <1>  -0.3630 
  7 C        6.1630     1.5860     0.0670 C.3   1 <1>   0.2800 
  8 H        6.4960     0.5430     0.0870 H.spc     1 <1>   0.0000 
  9 H        6.5670     2.0470    -0.8400 H.spc     1 <1>   0.0000 
 10 H        6.5510     2.0760     0.9670 H.spc     1 <1>   0.0000 
 11 C        2.7270     2.7570     0.0410 C.ar  1 <1>  -0.1500 
 12 H        2.2560     1.7780     0.0570 H.spc     1 <1>   0.1500 
 13 C        1.9520     3.9260     0.0260 C.ar  1 <1>   0.0540 
 14 C        0.4980     3.8940     0.0300 C.2   1 <1>   0.1730 
 15 N       -0.2730     5.0350     0.0280 N.2   1 <1>  -0.5650 
 16 C       -1.5250     4.6120     0.0340 C.2   1 <1>   0.1420 
 17 C       -2.7700     5.3400     0.0350 C.2   1 <1>   0.1450 
 18 N       -2.7510     6.7080     0.0290 N.pl3 1 <1>  -0.9000 
 19 H       -1.8390     7.1550     0.0240 H.spc     1 <1>   0.4000 
 20 H       -3.6010     7.2520     0.0300 H.spc     1 <1>   0.4000 
 21 C       -3.9170     4.6240     0.0420 C.2   1 <1>  -0.1500 
 22 H       -4.8800     5.1260     0.0440 H.spc     1 <1>   0.1500 
 23 C       -3.9400     3.1690     0.0480 C.2   1 <1>  -0.1500 
 24 H       -4.8970     2.6580     0.0530 H.spc     1 <1>   0.1500 
 25 C       -2.7760     2.5030     0.0440 C.2   1 <1>  -0.1810 
 26 H       -2.7080     1.4220     0.0480 H.spc     1 <1>   0.1500 
 27 N       -1.5870     3.2250     0.0380 N.pl3 1 <1>   0.3340 
 28 C       -0.2930     2.7660     0.0340 C.2   1 <1>  -0.3020 
 29 H       -0.0710     1.7100     0.0360 H.spc     1 <1>   0.1500 
 30 C        2.6150     5.1610     0.0070 C.ar  1 <1>  -0.1500 
 31 H        2.0410     6.0860    -0.0050 H.spc     1 <1>   0.1500 
@<TRIPOS>BOND
  1   1   2  1   
  2   2   3  ar  
  3   2  30  ar  
  4   3   4  1   
  5   3   5  ar  
  6   5   6  1   
  7   5  11  ar  
  8   6   7  1   
  9   7   8  1   
 10   7   9  1   
 11   7  10  1   
 12  11  12  1   
 13  11  13  ar  
 14  13  14  1   
 15  13  30  ar  
 16  14  15  1   
 17  14  28  2   
 18  15  16  2   
 19  16  17  1   
 20  16  27  1   
 21  17  18  1   
 22  17  21  2   
 23  18  19  1   
 24  18  20  1   
 25  21  22  1   
 26  21  23  1   
 27  23  24  1   
 28  23  25  2   
 29  25  26  1   
 30  25  27  1   
 31  27  28  1   
 32  28  29  1   
 33  30  31  1   
@<TRIPOS>SUBSTRUCTURE
  1 ****  14 GROUP 4 **** **** 0
