@<TRIPOS>MOLECULE
CHEM170
35 37 1 0 0 
SMALL
USER_CHARGES


@<TRIPOS>ATOM
  1 H        0.5560    -2.4490    -0.0230 H.spc     1 <1>   0.0000 
  2 C        0.6390    -1.6400     0.7090 C.3   1 <1>   0.0000 
  3 H       -0.0910    -0.8640     0.4520 H.spc     1 <1>   0.0000 
  4 H        0.3520    -2.0270     1.6920 H.spc     1 <1>   0.0000 
  5 C        2.0470    -1.0670     0.7530 C.3   1 <1>   0.2800 
  6 O        2.0140     0.1030     1.7200 O.3   1 <1>  -0.4300 
  7 C        2.6570     1.3480     1.5580 C.2   1 <1>   0.6590 
  8 O        2.3810     2.2760     2.3090 O.2   1 <1>  -0.5700 
  9 C        3.7040     1.4630     0.4080 C.3   1 <1>   0.1220 
 10 H        3.3100     2.1090    -0.3830 H.spc     1 <1>   0.0000 
 11 C        5.0680     1.9730     0.8040 C.2   1 <1>   0.6590 
 12 O        5.2430     3.0260     1.4030 O.2   1 <1>  -0.5700 
 13 O        6.1360     1.2680     0.3110 O.3   1 <1>  -0.4300 
 14 C        6.2200    -0.2010     0.3460 C.3   1 <1>   0.2800 
 15 C        6.4380    -0.6040     1.8150 C.3   1 <1>   0.0000 
 16 H        6.6550    -1.6700     1.9240 H.spc     1 <1>   0.0000 
 17 H        7.2810    -0.0470     2.2410 H.spc     1 <1>   0.0000 
 18 H        5.5750    -0.3600     2.4420 H.spc     1 <1>   0.0000 
 19 C        7.4820    -0.5720    -0.4440 C.3   1 <1>   0.0000 
 20 H        7.6330    -1.6560    -0.4760 H.spc     1 <1>   0.0000 
 21 H        7.4220    -0.1970    -1.4730 H.spc     1 <1>   0.0000 
 22 H        8.3720    -0.1080    -0.0030 H.spc     1 <1>   0.0000 
 23 C        4.9790    -0.8250    -0.3500 C.3   1 <1>   0.0000 
 24 H        5.1400    -0.8680    -1.4340 H.spc     1 <1>   0.0000 
 25 C        4.4510    -2.2350     0.1690 C.3   1 <1>   0.0000 
 26 H        4.1610    -2.8160    -0.7170 H.spc     1 <1>   0.0000 
 27 H        5.2430    -2.8150     0.6520 H.spc     1 <1>   0.0000 
 28 C        3.1390    -2.1860     1.1290 C.3   1 <1>   0.0000 
 29 H        2.6830    -3.1830     1.0850 H.spc     1 <1>   0.0000 
 30 H        3.4710    -2.0290     2.1630 H.spc     1 <1>   0.0000 
 31 C        3.8260     0.0630    -0.0500 C.3   1 <1>   0.0000 
 32 H        3.9680    -0.2250     1.0010 H.spc     1 <1>   0.0000 
 33 C        2.4910    -0.4630    -0.5490 C.3   1 <1>   0.0000 
 34 H        1.8260     0.3400    -0.8880 H.spc     1 <1>   0.0000 
 35 H        2.5710    -1.1890    -1.3640 H.spc     1 <1>   0.0000 
@<TRIPOS>BOND
  1   1   2  1   
  2   2   3  1   
  3   2   4  1   
  4   2   5  1   
  5   5   6  1   
  6   5  28  1   
  7   5  33  1   
  8   6   7  1   
  9   7   8  2   
 10   7   9  1   
 11   9  10  1   
 12   9  11  1   
 13   9  31  1   
 14  11  12  2   
 15  11  13  1   
 16  13  14  1   
 17  14  15  1   
 18  14  19  1   
 19  14  23  1   
 20  15  16  1   
 21  15  17  1   
 22  15  18  1   
 23  19  20  1   
 24  19  21  1   
 25  19  22  1   
 26  23  24  1   
 27  23  25  1   
 28  23  31  1   
 29  25  26  1   
 30  25  27  1   
 31  25  28  1   
 32  28  29  1   
 33  28  30  1   
 34  31  32  1   
 35  31  33  1   
 36  33  34  1   
 37  33  35  1   
@<TRIPOS>SUBSTRUCTURE
  1 ****  31 GROUP 4 **** **** 0
