@<TRIPOS>MOLECULE
CHEM162
23 25 1 0 0 
SMALL
USER_CHARGES


@<TRIPOS>ATOM
  1 H        7.6040     0.9880    -0.0130 H.spc     1 <1>   0.4000 
  2 O        7.4140     0.0270    -0.0160 O.3   1 <1>  -0.4360 
  3 N        6.0000     0.0090    -0.0070 N.am  1 <1>  -0.0840 
  4 C        5.4050    -1.2420    -0.0080 C.2   1 <1>   0.5440 
  5 O        5.9960    -2.3170    -0.0150 O.2   1 <1>  -0.5700 
  6 C        3.9190    -1.2200     0.0000 C.ar  1 <1>   0.0860 
  7 C        3.2140    -2.4300     0.0000 C.ar  1 <1>  -0.1500 
  8 H        3.7470    -3.3790    -0.0070 H.spc     1 <1>   0.1500 
  9 C        1.8220    -2.4210     0.0080 C.ar  1 <1>  -0.1500 
 10 H        1.2720    -3.3590     0.0080 H.spc     1 <1>   0.1500 
 11 C        1.1330    -1.2070     0.0170 C.ar  1 <1>  -0.1500 
 12 H        0.0440    -1.2240     0.0230 H.spc     1 <1>   0.1500 
 13 C        1.8250     0.0140     0.0170 C.ar  1 <1>   0.0000 
 14 C        1.1360     1.2390     0.0260 C.ar  1 <1>  -0.1500 
 15 H        0.0470     1.2580     0.0330 H.spc     1 <1>   0.1500 
 16 C        1.8280     2.4510     0.0270 C.ar  1 <1>  -0.1500 
 17 H        1.2790     3.3900     0.0340 H.spc     1 <1>   0.1500 
 18 C        3.2190     2.4570     0.0190 C.ar  1 <1>  -0.1500 
 19 H        3.7550     3.4040     0.0200 H.spc     1 <1>   0.1500 
 20 C        3.9170     1.2440     0.0100 C.ar  1 <1>   0.0860 
 21 C        3.2400     0.0120     0.0090 C.ar  1 <1>   0.0000 
 22 C        5.3960     1.2540     0.0010 C.2   1 <1>   0.5440 
 23 O        6.0350     2.3030     0.0010 O.2   1 <1>  -0.5700 
@<TRIPOS>BOND
  1   1   2  1   
  2   2   3  1   
  3   3   4  am  
  4   3  22  am  
  5   4   5  2   
  6   4   6  1   
  7   6   7  ar  
  8   6  21  ar  
  9   7   8  1   
 10   7   9  ar  
 11   9  10  1   
 12   9  11  ar  
 13  11  12  1   
 14  11  13  ar  
 15  13  14  ar  
 16  13  21  ar  
 17  14  15  1   
 18  14  16  ar  
 19  16  17  1   
 20  16  18  ar  
 21  18  19  1   
 22  18  20  ar  
 23  20  21  ar  
 24  20  22  1   
 25  22  23  2   
@<TRIPOS>SUBSTRUCTURE
  1 ****  21 GROUP 4 **** **** 0
