@<TRIPOS>MOLECULE
CHEM174
16 16 1 0 0 
SMALL
USER_CHARGES


@<TRIPOS>ATOM
  1 H       -0.8130    -0.8200    -0.7620 H.spc     1 <1>   0.5000 
  2 O        0.1150    -0.6000    -0.5430 O.3   1 <1>  -0.6500 
  3 C        0.6320    -1.7980    -0.1810 C.2   1 <1>   0.8050 
  4 O       -0.0800    -2.7910    -0.2010 O.2   1 <1>  -0.5700 
  5 C        2.0220    -1.6830     0.1870 C.2   1 <1>  -0.0450 
  6 S        2.8800    -3.0810     0.6820 S.3   1 <1>  -0.0800 
  7 C        4.3260    -2.2040     0.9200 C.2   1 <1>   0.0960 
  8 S        5.7940    -2.9870     1.4810 S.3   1 <1>  -0.2860 
  9 C        6.9250    -2.5720     0.1340 C.3   1 <1>   0.2300 
 10 H        6.5250    -2.9160    -0.8240 H.spc     1 <1>   0.0000 
 11 H        7.8850    -3.0660     0.3060 H.spc     1 <1>   0.0000 
 12 H        7.0950    -1.4930     0.0890 H.spc     1 <1>   0.0000 
 13 C        4.1620    -0.8650     0.6450 C.2   1 <1>  -0.1500 
 14 H        4.9480    -0.1270     0.7480 H.spc     1 <1>   0.1500 
 15 C        2.8350    -0.5640     0.2160 C.2   1 <1>  -0.1500 
 16 H        2.4900     0.4280    -0.0520 H.spc     1 <1>   0.1500 
@<TRIPOS>BOND
  1   1   2  1   
  2   2   3  1   
  3   3   4  2   
  4   3   5  1   
  5   5   6  1   
  6   5  15  2   
  7   6   7  1   
  8   7   8  1   
  9   7  13  2   
 10   8   9  1   
 11   9  10  1   
 12   9  11  1   
 13   9  12  1   
 14  13  14  1   
 15  13  15  1   
 16  15  16  1   
@<TRIPOS>SUBSTRUCTURE
  1 ****   5 GROUP 4 **** **** 0
