@<TRIPOS>MOLECULE
CHEM106
26 27 1 0 0 
SMALL
USER_CHARGES


@<TRIPOS>ATOM
  1 H        1.4980     1.7490    -2.1330 H.spc     1 <1>   0.1500 
  2 C        0.6870     2.1780    -1.5510 C.ar  1 <1>   0.1600 
  3 N       -0.2720     1.3110    -1.1720 N.ar  1 <1>  -0.6200 
  4 C       -1.2920     1.8130    -0.4380 C.ar  1 <1>   0.1600 
  5 H       -2.0340     1.0720    -0.1480 H.spc     1 <1>   0.1500 
  6 C       -1.4230     3.1550    -0.0680 C.ar  1 <1>  -0.1440 
  7 C       -2.6490     3.5990     0.7180 C.3   1 <1>   0.4850 
  8 C       -2.5710     5.0340     1.2680 C.3   1 <1>   0.0000 
  9 H       -1.7080     5.1560     1.9350 H.spc     1 <1>   0.0000 
 10 H       -3.4590     5.2690     1.8680 H.spc     1 <1>   0.0000 
 11 H       -2.5050     5.7880     0.4770 H.spc     1 <1>   0.0000 
 12 O       -2.6920     2.7530     1.8780 O.3   1 <1>  -0.4300 
 13 C       -3.8840     2.3190     2.3540 C.2   1 <1>   0.7800 
 14 O       -3.9800     1.7990     3.4600 O.2   1 <1>  -0.5700 
 15 N       -4.9740     2.4540     1.5300 N.am  1 <1>  -0.3680 
 16 H       -5.8540     2.1060     1.8980 H.spc     1 <1>   0.3700 
 17 N       -5.0110     2.9770     0.2800 N.2   1 <1>  -0.5120 
 18 C       -3.9110     3.5100    -0.1510 C.2   1 <1>   0.3280 
 19 C       -3.9040     4.0980    -1.5430 C.3   1 <1>   0.0610 
 20 H       -3.5060     5.1150    -1.5230 H.spc     1 <1>   0.0000 
 21 H       -4.9200     4.1290    -1.9470 H.spc     1 <1>   0.0000 
 22 H       -3.2880     3.4810    -2.2020 H.spc     1 <1>   0.0000 
 23 C       -0.4020     4.0170    -0.4890 C.ar  1 <1>  -0.1500 
 24 H       -0.4110     5.0760    -0.2480 H.spc     1 <1>   0.1500 
 25 C        0.6670     3.5250    -1.2360 C.ar  1 <1>  -0.1500 
 26 H        1.4670     4.1790    -1.5660 H.spc     1 <1>   0.1500 
@<TRIPOS>BOND
  1   1   2  1   
  2   2   3  ar  
  3   2  25  ar  
  4   3   4  ar  
  5   4   5  1   
  6   4   6  ar  
  7   6   7  1   
  8   6  23  ar  
  9   7   8  1   
 10   7  12  1   
 11   7  18  1   
 12   8   9  1   
 13   8  10  1   
 14   8  11  1   
 15  12  13  1   
 16  13  14  2   
 17  13  15  am  
 18  15  16  1   
 19  15  17  1   
 20  17  18  2   
 21  18  19  1   
 22  19  20  1   
 23  19  21  1   
 24  19  22  1   
 25  23  24  1   
 26  23  25  ar  
 27  25  26  1   
@<TRIPOS>SUBSTRUCTURE
  1 ****   7 GROUP 4 **** **** 0
