@<TRIPOS>MOLECULE
CHEM037
29 30 1 0 0 
SMALL
USER_CHARGES


@<TRIPOS>ATOM
  1 H       11.8850     4.4660    -1.5020 H.spc     1 <1>   0.5000 
  2 O       11.1230     3.8500    -1.5110 O.3   1 <1>  -0.6500 
  3 C       10.2390     4.3980    -0.6540 C.2   1 <1>   0.6590 
  4 O       10.4920     5.4470    -0.0880 O.2   1 <1>  -0.5700 
  5 C        8.9860     3.5790    -0.5390 C.3   1 <1>   0.0610 
  6 H        9.2680     2.5440    -0.3140 H.spc     1 <1>   0.0000 
  7 H        8.4720     3.5990    -1.5070 H.spc     1 <1>   0.0000 
  8 C        8.0780     4.1240     0.5590 C.3   1 <1>   0.1800 
  9 H        7.8270     5.1730     0.3560 H.spc     1 <1>   0.0000 
 10 H        8.6070     4.1160     1.5200 H.spc     1 <1>   0.0000 
 11 C        6.8260     3.3180     0.6820 C.2   1 <1>  -0.3320 
 12 C        6.5780     2.1380     1.3490 C.2   1 <1>  -0.1500 
 13 H        7.2960     1.5740     1.9300 H.spc     1 <1>   0.1500 
 14 C        5.2200     1.8040     1.1320 C.2   1 <1>  -0.1500 
 15 H        4.7050     0.9360     1.5230 H.spc     1 <1>   0.1500 
 16 C        4.6490     2.7930     0.3480 C.2   1 <1>  -0.2050 
 17 C        3.2860     2.9320    -0.1680 C.ar  1 <1>   0.0530 
 18 C        2.5590     1.7990    -0.5580 C.ar  1 <1>  -0.1500 
 19 H        3.0050     0.8100    -0.4870 H.spc     1 <1>   0.1500 
 20 C        1.2590     1.9220    -1.0560 C.ar  1 <1>  -0.1500 
 21 H        0.7100     1.0340    -1.3590 H.spc     1 <1>   0.1500 
 22 C        0.6700     3.1790    -1.1670 C.ar  1 <1>  -0.1500 
 23 H       -0.3410     3.2740    -1.5530 H.spc     1 <1>   0.1500 
 24 C        1.3780     4.3130    -0.7770 C.ar  1 <1>  -0.1500 
 25 H        0.9170     5.2940    -0.8530 H.spc     1 <1>   0.1500 
 26 C        2.6790     4.1910    -0.2790 C.ar  1 <1>  -0.1500 
 27 H        3.2000     5.0890     0.0400 H.spc     1 <1>   0.1500 
 28 N        5.6510     3.7000     0.0780 N.pl3 1 <1>   0.0330 
 29 H        5.5330     4.5280    -0.4900 H.spc     1 <1>   0.2700 
@<TRIPOS>BOND
  1   1   2  1   
  2   2   3  1   
  3   3   4  2   
  4   3   5  1   
  5   5   6  1   
  6   5   7  1   
  7   5   8  1   
  8   8   9  1   
  9   8  10  1   
 10   8  11  1   
 11  11  12  2   
 12  11  28  1   
 13  12  13  1   
 14  12  14  1   
 15  14  15  1   
 16  14  16  2   
 17  16  17  1   
 18  16  28  1   
 19  17  18  ar  
 20  17  26  ar  
 21  18  19  1   
 22  18  20  ar  
 23  20  21  1   
 24  20  22  ar  
 25  22  23  1   
 26  22  24  ar  
 27  24  25  1   
 28  24  26  ar  
 29  26  27  1   
 30  28  29  1   
@<TRIPOS>SUBSTRUCTURE
  1 ****  28 GROUP 4 **** **** 0
