@<TRIPOS>MOLECULE
CHEM158
25 26 1 0 0 
SMALL
USER_CHARGES


@<TRIPOS>ATOM
  1 H        7.9970    -2.0920    -0.2160 H.spc     1 <1>   0.5000 
  2 O        7.3830    -1.3330    -0.2220 O.3   1 <1>  -0.6500 
  3 C        6.1590    -1.9160    -0.1650 C.2   1 <1>   0.8060 
  4 O        6.0810    -3.1390    -0.1230 O.2   1 <1>  -0.5700 
  5 C        5.0190    -0.9930    -0.1580 C.2   1 <1>   0.2030 
  6 N        5.1600     0.3500    -0.1850 N.2   1 <1>  -0.7070 
  7 N        3.9060     0.8310    -0.1560 N.pl3 1 <1>   0.3000 
  8 H        3.7770     1.8380    -0.1710 H.spc     1 <1>   0.2700 
  9 C        2.9630    -0.1440    -0.1090 C.2   1 <1>  -0.3320 
 10 C        3.6390    -1.3410    -0.1190 C.2   1 <1>  -0.1810 
 11 C        2.9490    -2.6590    -0.0660 C.3   1 <1>   0.1810 
 12 H        3.4070    -3.3600    -0.7720 H.spc     1 <1>   0.0000 
 13 H        3.0710    -3.0760     0.9410 H.spc     1 <1>   0.0000 
 14 C        1.4400    -2.5050    -0.3990 C.3   1 <1>   0.0000 
 15 H        1.3420    -2.3440    -1.4820 H.spc     1 <1>   0.0000 
 16 C        0.6840    -3.7830    -0.0430 C.3   1 <1>   0.0000 
 17 H       -0.3700    -3.7020    -0.3280 H.spc     1 <1>   0.0000 
 18 H        0.7300    -3.9870     1.0320 H.spc     1 <1>   0.0000 
 19 H        1.1090    -4.6440    -0.5710 H.spc     1 <1>   0.0000 
 20 C        0.8150    -1.2790     0.3180 C.3   1 <1>   0.0000 
 21 H        0.9060    -1.4160     1.4040 H.spc     1 <1>   0.0000 
 22 H       -0.2570    -1.2130     0.0960 H.spc     1 <1>   0.0000 
 23 C        1.4940     0.0460    -0.0840 C.3   1 <1>   0.1800 
 24 H        1.1520     0.3440    -1.0820 H.spc     1 <1>   0.0000 
 25 H        1.2090     0.8370     0.6180 H.spc     1 <1>   0.0000 
@<TRIPOS>BOND
  1   1   2  1   
  2   2   3  1   
  3   3   4  2   
  4   3   5  1   
  5   5   6  2   
  6   5  10  1   
  7   6   7  1   
  8   7   8  1   
  9   7   9  1   
 10   9  10  2   
 11   9  23  1   
 12  10  11  1   
 13  11  12  1   
 14  11  13  1   
 15  11  14  1   
 16  14  15  1   
 17  14  16  1   
 18  14  20  1   
 19  16  17  1   
 20  16  18  1   
 21  16  19  1   
 22  20  21  1   
 23  20  22  1   
 24  20  23  1   
 25  23  24  1   
 26  23  25  1   
@<TRIPOS>SUBSTRUCTURE
  1 ****  10 GROUP 4 **** **** 0
