@<TRIPOS>MOLECULE
CHEM015
31 31 1 0 0 
SMALL
USER_CHARGES


@<TRIPOS>ATOM
  1 H        4.1630     2.9780    -2.4410 H.spc      1 <1>   0.4000 
  2 N        3.2180     2.6980    -2.1520 N.2   1 <1>  -0.8500 
  3 C        3.4040     1.6010    -1.5050 C.2   1 <1>   0.7110 
  4 N        4.7010     1.1930    -1.4200 N.2   1 <1>  -0.6610 
  5 C        4.9030     0.0900    -0.7580 C.2   1 <1>   0.3750 
  6 C        6.3420    -0.4180    -0.6530 C.3   1 <1>   0.3410 
  7 H        6.9960     0.4510    -0.5170 H.spc      1 <1>   0.0000 
  8 H        6.5890    -0.9020    -1.6060 H.spc      1 <1>   0.0000 
  9 O        6.5440    -1.3320     0.4150 O.3   1 <1>  -0.5600 
 10 C        7.9010    -1.7510     0.4950 C.3   1 <1>   0.2800 
 11 H        8.1990    -2.2610    -0.4260 H.spc      1 <1>   0.0000 
 12 H        7.9950    -2.4520     1.3290 H.spc      1 <1>   0.0000 
 13 H        8.5560    -0.8950     0.6820 H.spc      1 <1>   0.0000 
 14 C        3.8230    -0.7360    -0.1230 C.2   1 <1>  -0.1360 
 15 H        4.1070    -1.6400     0.3960 H.spc      1 <1>   0.1500 
 16 C        2.5630    -0.2790    -0.2500 C.2   1 <1>  -0.0380 
 17 C        1.3170    -0.9730     0.3270 C.3   1 <1>   0.1380 
 18 C        0.6040    -0.0240     1.3140 C.3   1 <1>   0.0000 
 19 H        1.2720     0.2690     2.1330 H.spc      1 <1>   0.0000 
 20 H        0.2560     0.8920     0.8240 H.spc      1 <1>   0.0000 
 21 H       -0.2750    -0.5050     1.7590 H.spc      1 <1>   0.0000 
 22 C        0.3480    -1.3330    -0.8180 C.3   1 <1>   0.0000 
 23 H       -0.0060    -0.4430    -1.3520 H.spc      1 <1>   0.0000 
 24 H       -0.5390    -1.8520    -0.4370 H.spc      1 <1>   0.0000 
 25 H        0.8290    -1.9910    -1.5510 H.spc      1 <1>   0.0000 
 26 C        1.6360    -2.2790     1.0900 C.3   1 <1>   0.0000 
 27 H        0.7220    -2.7390     1.4830 H.spc      1 <1>   0.0000 
 28 H        2.1160    -3.0190     0.4390 H.spc      1 <1>   0.0000 
 29 H        2.2970    -2.0940     1.9450 H.spc      1 <1>   0.0000 
 30 N        2.3860     0.8990    -0.9480 N.pl3 1 <1>  -0.5500 
 31 H        1.4610     1.2860    -1.0690 H.spc      1 <1>   0.4000 
@<TRIPOS>BOND
  1   1   2  1   
  2   2   3  2   
  3   3   4  1   
  4   3  30  1   
  5   4   5  2   
  6   5   6  1   
  7   5  14  1   
  8   6   7  1   
  9   6   8  1   
 10   6   9  1   
 11   9  10  1   
 12  10  11  1   
 13  10  12  1   
 14  10  13  1   
 15  14  15  1   
 16  14  16  2   
 17  16  17  1   
 18  16  30  1   
 19  17  18  1   
 20  17  22  1   
 21  17  26  1   
 22  18  19  1   
 23  18  20  1   
 24  18  21  1   
 25  22  23  1   
 26  22  24  1   
 27  22  25  1   
 28  26  27  1   
 29  26  28  1   
 30  26  29  1   
 31  30  31  1   
@<TRIPOS>SUBSTRUCTURE
  1 ****  14 GROUP 4 **** **** 0
